                                   MODFLOW 6
                U.S. GEOLOGICAL SURVEY MODULAR HYDROLOGIC MODEL
                          GROUNDWATER FLOW MODEL (GWF)
                        VERSION 6.4.1 Release 12/09/2022

   MODFLOW 6 compiled Dec 09 2022 18:18:37 with Intel(R) Fortran Intel(R) 64
   Compiler Classic for applications running on Intel(R) 64, Version 2021.7.0
                             Build 20220726_000000

This software has been approved for release by the U.S. Geological 
Survey (USGS). Although the software has been subjected to rigorous 
review, the USGS reserves the right to update the software as needed 
pursuant to further analysis and review. No warranty, expressed or 
implied, is made by the USGS or the U.S. Government as to the 
functionality of the software and related material nor shall the 
fact of release constitute any such warranty. Furthermore, the 
software is released on condition that neither the USGS nor the U.S. 
Government shall be held liable for any damages resulting from its 
authorized or unauthorized use. Also refer to the USGS Water 
Resources Software User Rights Notice for complete use, copyright, 
and distribution information.


As a work of the United States Government, this USGS product is 
in the public domain within the United States. You can copy, 
modify, distribute, and perform the work, even for commercial 
purposes, all without asking permission. Additionally, USGS 
waives copyright and related rights in the work worldwide 
through CC0 1.0 Universal Public Domain Dedication 
(https://creativecommons.org/publicdomain/zero/1.0/).

The following GNU Lesser General Public License (LGPL) libraries
are used in this USGS product:

    SPARSKIT version 2.0
      ilut, luson, and qsplit 
      (https://www-users.cse.umn.edu/~saad/software/SPARSKIT/)

    RCM - Reverse Cuthill McKee Ordering
      (https://people.math.sc.edu/Burkardt/f_src/rcm/rcm.html)

    BLAS - Basic Linear Algebra Subprograms Level 1
      (https://people.math.sc.edu/Burkardt/f_src/blas1_d/blas1_d.html)

    SPARSEKIT - Sparse Matrix Utility Package
      amux, dperm, dvperm, rperm, and cperm
      (https://people.sc.fsu.edu/~jburkardt/f77_src/sparsekit/sparsekit.html)

The following BSD-3 License libraries are used in this USGS product:

    Modern Fortran DAG Library
      Copyright (c) 2018, Jacob Williams
      All rights reserved.
      (https://github.com/jacobwilliams/daglib)

MODFLOW 6 compiler options: /Isrc\libmf6core.a.p /Isrc /I..\src
/Isrc\libmf6_external.a.p /MTd /nologo /warn:general /warn:truncated_source
/stand:f08 /Zi /traceback /O2 /fpe:0 /heap-arrays:0 /traceback /fpp
/Qdiag-disable:7416 /Qdiag-disable:7025 /Qdiag-disable:5268
/Fdsrc\libmf6core.a.p\Utilities_compilerversion.F90.pdb
/module:src\libmf6core.a.p
/Fosrc/libmf6core.a.p/Utilities_compilerversion.F90.obj /c

System command used to initiate simulation:
mf6  mfsim.nam

MODFLOW was compiled using uniform precision.

Real Variables
  KIND: 8
  TINY (smallest non-zero value):    2.225074-308
  HUGE (largest value):    1.797693+308
  PRECISION: 15
  SIZE IN BITS: 64

Integer Variables
  KIND: 4
  HUGE (largest value): 2147483647
  SIZE IN BITS: 32

Long Integer Variables
  KIND: 8
  HUGE (largest value): 9223372036854775807
  SIZE IN BITS: 64

Logical Variables
  KIND: 4
  SIZE IN BITS: 32
 

 OPENED sva_tm.dis
 FILE TYPE:DIS6                   UNIT 1005   STATUS:OLD                 
 FORMAT:FORMATTED              ACCESS:SEQUENTIAL          
 ACTION:READ                


 OPENED sva_tm.wel1
 FILE TYPE:WEL6                   UNIT 1006   STATUS:OLD                 
 FORMAT:FORMATTED              ACCESS:SEQUENTIAL          
 ACTION:READ                


 OPENED sva_tm.wel2
 FILE TYPE:WEL6                   UNIT 1007   STATUS:OLD                 
 FORMAT:FORMATTED              ACCESS:SEQUENTIAL          
 ACTION:READ                


 OPENED sva_tm.npf
 FILE TYPE:NPF6                   UNIT 1008   STATUS:OLD                 
 FORMAT:FORMATTED              ACCESS:SEQUENTIAL          
 ACTION:READ                


 OPENED sva_tm.sto
 FILE TYPE:STO6                   UNIT 1009   STATUS:OLD                 
 FORMAT:FORMATTED              ACCESS:SEQUENTIAL          
 ACTION:READ                


 OPENED sva_tm.ic
 FILE TYPE:IC6                    UNIT 1010   STATUS:OLD                 
 FORMAT:FORMATTED              ACCESS:SEQUENTIAL          
 ACTION:READ                


 OPENED sva_tm.oc
 FILE TYPE:OC6                    UNIT 1011   STATUS:OLD                 
 FORMAT:FORMATTED              ACCESS:SEQUENTIAL          
 ACTION:READ                


 DIS -- STRUCTURED GRID DISCRETIZATION PACKAGE, VERSION 2 : 3/27/2014 - INPUT READ FROM UNIT 1005

 Loading input for SVA_TM/DIS
 # File generated by Flopy version 3.3.6 on 06/26/2023 at 16:14:30.
   NLAY = 1
   NROW = 50
   NCOL = 50
   DELR = .2000000000000000E-01
   DELC = .2000000000000000E-01
   TOP = .000000000000000
   BOTM = -1.000000000000000
 Loading input complete...


 NPF -- NODE PROPERTY FLOW PACKAGE, VERSION 1, 3/30/2015 INPUT READ FROM UNIT 1008

 Loading input for SVA_TM/NPF
 # File generated by Flopy version 3.3.6 on 06/26/2023 at 16:14:30.
   IPAKCB = 1
   ICELLTYPE = 0
   K = variable 1D double precision array ranging from .1584800000000000E-03 to 580.3000000000000
   K33 = variable 1D double precision array ranging from .1584800000000000E-03 to 580.3000000000000
 Loading input complete...

 Setting Discretization Options
 End Setting Discretization Options

 Setting Discretization Dimensions
    NLAY = 1
    NROW = 50
    NCOL = 50
 End Setting Discretization Dimensions

 Setting Discretization Griddata
    DELR set from input file
    DELC set from input file
    TOP set from input file
    BOTM set from input file
 End Setting Discretization Griddata

 Setting NPF Options
    Cell-by-cell flow information will be saved to binary file whenever ICBCFL is not zero.
 End Setting NPF Options

 Setting NPF Griddata
    ICELLTYPE set from input file
    K set from input file
    K33 set from input file
    K22 not provided.  Setting K22 = K.
 End Setting NPF Griddata


 WEL   -- WEL PACKAGE, VERSION 8, 2/22/2014 INPUT READ FROM UNIT 1006
 # File generated by Flopy version 3.3.6 on 06/26/2023 at 16:14:30.

 PROCESSING WEL OPTIONS
    AUXILIARY WEL VARIABLE: CONCENTRATION   
    LISTS OF WEL CELLS WILL BE PRINTED.
    WEL FLOWS WILL BE PRINTED TO LISTING FILE.
 END OF WEL OPTIONS

 PROCESSING WEL DIMENSIONS
    MAXBOUND =      10
 END OF WEL DIMENSIONS

 WEL   -- WEL PACKAGE, VERSION 8, 2/22/2014 INPUT READ FROM UNIT 1007
 # File generated by Flopy version 3.3.6 on 06/26/2023 at 16:14:30.

 PROCESSING WEL OPTIONS
    AUXILIARY WEL VARIABLE: CONCENTRATION   
    LISTS OF WEL CELLS WILL BE PRINTED.
    WEL FLOWS WILL BE PRINTED TO LISTING FILE.
 END OF WEL OPTIONS

 PROCESSING WEL DIMENSIONS
    MAXBOUND =       2
 END OF WEL DIMENSIONS

 IC -- INITIAL CONDITIONS PACKAGE, VERSION 8, 3/28/2015 INPUT READ FROM UNIT 1010
 # File generated by Flopy version 3.3.6 on 06/26/2023 at 16:14:30.
 PROCESSING GRIDDATA

     INITIAL HEAD =   1.000000    
 END PROCESSING GRIDDATA

 STO -- STORAGE PACKAGE, VERSION 1, 5/19/2014 INPUT READ FROM UNIT 1009


 # File generated by Flopy version 3.3.6 on 06/26/2023 at 16:14:30.
 PROCESSING STORAGE OPTIONS
    CELL-BY-CELL FLOW INFORMATION WILL BE SAVED TO BINARY FILE WHENEVER ICBCFL IS NOT ZERO.
 END OF STORAGE OPTIONS
 PROCESSING GRIDDATA

                 ICONVERT = 0

         SPECIFIC STORAGE =   0.000000    

           SPECIFIC YIELD =   0.000000    
 END PROCESSING GRIDDATA
    BINARY GRID INFORMATION WILL BE WRITTEN TO:
      UNIT NUMBER: 1026
      FILE NAME: C:\Workspace\opaz0002\Github\Spatial-varying anisotropy\history-matching\cal1a_new_reg6\sva_tm.dis.grb

 OPENED C:\Workspace\opaz0002\Github\Spatial-varying anisotropy\history-matching\cal1a_new_reg6\sva_tm.dis.grb
 FILE TYPE:DATA(BINARY)   UNIT 1026   STATUS:REPLACE             
 FORMAT:UNFORMATTED            ACCESS:STREAM              
 ACTION:READWRITE           

      THE LAST TIME STEP WILL BE PRINTED
      THE LAST TIME STEP WILL BE PRINTED
 # File generated by Flopy version 3.3.6 on 06/26/2023 at 16:14:30.

 PROCESSING OC OPTIONS

    BUDGET INFORMATION WILL BE WRITTEN TO:
      UNIT NUMBER: 1027
      FILE NAME: sva_tm.bud

 OPENED sva_tm.bud
 FILE TYPE:DATA(BINARY)   UNIT 1027   STATUS:REPLACE             
 FORMAT:UNFORMATTED            ACCESS:STREAM              
 ACTION:READWRITE           

    HEAD INFORMATION WILL BE WRITTEN TO:
      UNIT NUMBER: 1028
      FILE NAME: sva_tm.hds

 OPENED sva_tm.hds
 FILE TYPE:DATA(BINARY)   UNIT 1028   STATUS:REPLACE             
 FORMAT:UNFORMATTED            ACCESS:STREAM              
 ACTION:READWRITE           

 END OF OC OPTIONS

start timestep kper="1" kstp="1" mode="normal"


 BEGIN READING OUTPUT CONTROL FOR STRESS PERIOD 1
      ALL TIME STEPS WILL BE SAVED
      ALL TIME STEPS WILL BE SAVED
      ALL TIME STEPS WILL BE PRINTED

 END READING OUTPUT CONTROL FOR STRESS PERIOD 1


 STRESS PERIOD 1 IS TRANSIENT

 --------------------------------------------------------------------
  WEL NO.    LAYER    ROW     COL     STRESS RATE     CONCENTRATION  
 --------------------------------------------------------------------
     1         1      17      17    -7.142857140E-05  0.00000000     
     2         1      33      17    -7.142857140E-05  0.00000000     
     3         1       9      26    -7.142857140E-05  0.00000000     
     4         1      17      35    -7.142857140E-05  0.00000000     
     5         1      33      35    -7.142857140E-05  0.00000000     
     6         1      26      26    -7.142857140E-05  0.00000000     
     7         1      41      26    -7.142857140E-05  0.00000000     
 --------------------------------------------------------------------


 --------------------------------------------------------------------
  WEL NO.    LAYER    ROW     COL     STRESS RATE     CONCENTRATION  
 --------------------------------------------------------------------
     1         1      17      26     2.500000000E-04  1.00000000     
     2         1      33      26     2.500000000E-04  1.00000000     
 --------------------------------------------------------------------


 UBDSV1 SAVING           STO-SS ON UNIT   1027 AT TIME STEP      1, STRESS PERIOD      1
 UBDSV1 SAVING     FLOW-JA-FACE ON UNIT   1027 AT TIME STEP      1, STRESS PERIOD      1

 WEL PACKAGE (WEL1) FLOW RATES   PERIOD      1   STEP        1
 -----------------------------------------------
   NUMBER   CELLID                    RATE      
 -----------------------------------------------
     1      (1,17,17)            -7.14285714E-05
     2      (1,33,17)            -7.14285714E-05
     3      (1,9,26)             -7.14285714E-05
     4      (1,17,35)            -7.14285714E-05
     5      (1,33,35)            -7.14285714E-05
     6      (1,26,26)            -7.14285714E-05
     7      (1,41,26)            -7.14285714E-05
 -----------------------------------------------




 WEL PACKAGE (WEL2) FLOW RATES   PERIOD      1   STEP        1
 -----------------------------------------------
   NUMBER   CELLID                    RATE      
 -----------------------------------------------
     1      (1,17,26)             2.50000000E-04
     2      (1,33,26)             2.50000000E-04
 -----------------------------------------------




 HEAD WILL BE SAVED ON UNIT 1028 AT END OF TIME STEP    1, STRESS PERIOD    1


  VOLUME BUDGET FOR ENTIRE MODEL AT END OF TIME STEP    1, STRESS PERIOD   1
  ---------------------------------------------------------------------------------------------------

     CUMULATIVE VOLUME      L**3       RATES FOR THIS TIME STEP      L**3/T          PACKAGE NAME    
     ------------------                 ------------------------                     ----------------

           IN:                                      IN:
           ---                                      ---
              STO-SS =           0.0000                STO-SS =           0.0000     STORAGE                          
                 WEL =           0.0000                   WEL =           0.0000     WEL1                             
                 WEL =       1.0000E-03                   WEL =       5.0000E-04     WEL2                             

            TOTAL IN =       1.0000E-03              TOTAL IN =       5.0000E-04

          OUT:                                     OUT:
          ----                                     ----
              STO-SS =           0.0000                STO-SS =           0.0000     STORAGE                          
                 WEL =       1.0000E-03                   WEL =       5.0000E-04     WEL1                             
                 WEL =           0.0000                   WEL =           0.0000     WEL2                             

           TOTAL OUT =       1.0000E-03             TOTAL OUT =       5.0000E-04

            IN - OUT =       4.0000E-13              IN - OUT =       2.0000E-13

 PERCENT DISCREPANCY =           0.00     PERCENT DISCREPANCY =           0.00




         TIME SUMMARY AT END OF TIME STEP    1 IN STRESS PERIOD    1
                    SECONDS     MINUTES      HOURS       DAYS        YEARS
                    -----------------------------------------------------------
   TIME STEP LENGTH 1.72800E+05  2880.0      48.000      2.0000     5.47570E-03
 STRESS PERIOD TIME 1.72800E+05  2880.0      48.000      2.0000     5.47570E-03
         TOTAL TIME 1.72800E+05  2880.0      48.000      2.0000     5.47570E-03


end timestep


start timestep kper="1" kstp="2" mode="normal"

 UBDSV1 SAVING           STO-SS ON UNIT   1027 AT TIME STEP      2, STRESS PERIOD      1
 UBDSV1 SAVING     FLOW-JA-FACE ON UNIT   1027 AT TIME STEP      2, STRESS PERIOD      1

 WEL PACKAGE (WEL1) FLOW RATES   PERIOD      1   STEP        2
 -----------------------------------------------
   NUMBER   CELLID                    RATE      
 -----------------------------------------------
     1      (1,17,17)            -7.14285714E-05
     2      (1,33,17)            -7.14285714E-05
     3      (1,9,26)             -7.14285714E-05
     4      (1,17,35)            -7.14285714E-05
     5      (1,33,35)            -7.14285714E-05
     6      (1,26,26)            -7.14285714E-05
     7      (1,41,26)            -7.14285714E-05
 -----------------------------------------------




 WEL PACKAGE (WEL2) FLOW RATES   PERIOD      1   STEP        2
 -----------------------------------------------
   NUMBER   CELLID                    RATE      
 -----------------------------------------------
     1      (1,17,26)             2.50000000E-04
     2      (1,33,26)             2.50000000E-04
 -----------------------------------------------




 HEAD WILL BE SAVED ON UNIT 1028 AT END OF TIME STEP    2, STRESS PERIOD    1


  VOLUME BUDGET FOR ENTIRE MODEL AT END OF TIME STEP    2, STRESS PERIOD   1
  ---------------------------------------------------------------------------------------------------

     CUMULATIVE VOLUME      L**3       RATES FOR THIS TIME STEP      L**3/T          PACKAGE NAME    
     ------------------                 ------------------------                     ----------------

           IN:                                      IN:
           ---                                      ---
              STO-SS =           0.0000                STO-SS =           0.0000     STORAGE                          
                 WEL =           0.0000                   WEL =           0.0000     WEL1                             
                 WEL =       2.0000E-03                   WEL =       5.0000E-04     WEL2                             

            TOTAL IN =       2.0000E-03              TOTAL IN =       5.0000E-04

          OUT:                                     OUT:
          ----                                     ----
              STO-SS =           0.0000                STO-SS =           0.0000     STORAGE                          
                 WEL =       2.0000E-03                   WEL =       5.0000E-04     WEL1                             
                 WEL =           0.0000                   WEL =           0.0000     WEL2                             

           TOTAL OUT =       2.0000E-03             TOTAL OUT =       5.0000E-04

            IN - OUT =       8.0000E-13              IN - OUT =       2.0000E-13

 PERCENT DISCREPANCY =           0.00     PERCENT DISCREPANCY =           0.00




         TIME SUMMARY AT END OF TIME STEP    2 IN STRESS PERIOD    1
                    SECONDS     MINUTES      HOURS       DAYS        YEARS
                    -----------------------------------------------------------
   TIME STEP LENGTH 1.72800E+05  2880.0      48.000      2.0000     5.47570E-03
 STRESS PERIOD TIME 3.45600E+05  5760.0      96.000      4.0000     1.09514E-02
         TOTAL TIME 3.45600E+05  5760.0      96.000      4.0000     1.09514E-02


end timestep


start timestep kper="1" kstp="3" mode="normal"

 UBDSV1 SAVING           STO-SS ON UNIT   1027 AT TIME STEP      3, STRESS PERIOD      1
 UBDSV1 SAVING     FLOW-JA-FACE ON UNIT   1027 AT TIME STEP      3, STRESS PERIOD      1

 WEL PACKAGE (WEL1) FLOW RATES   PERIOD      1   STEP        3
 -----------------------------------------------
   NUMBER   CELLID                    RATE      
 -----------------------------------------------
     1      (1,17,17)            -7.14285714E-05
     2      (1,33,17)            -7.14285714E-05
     3      (1,9,26)             -7.14285714E-05
     4      (1,17,35)            -7.14285714E-05
     5      (1,33,35)            -7.14285714E-05
     6      (1,26,26)            -7.14285714E-05
     7      (1,41,26)            -7.14285714E-05
 -----------------------------------------------




 WEL PACKAGE (WEL2) FLOW RATES   PERIOD      1   STEP        3
 -----------------------------------------------
   NUMBER   CELLID                    RATE      
 -----------------------------------------------
     1      (1,17,26)             2.50000000E-04
     2      (1,33,26)             2.50000000E-04
 -----------------------------------------------




 HEAD WILL BE SAVED ON UNIT 1028 AT END OF TIME STEP    3, STRESS PERIOD    1


  VOLUME BUDGET FOR ENTIRE MODEL AT END OF TIME STEP    3, STRESS PERIOD   1
  ---------------------------------------------------------------------------------------------------

     CUMULATIVE VOLUME      L**3       RATES FOR THIS TIME STEP      L**3/T          PACKAGE NAME    
     ------------------                 ------------------------                     ----------------

           IN:                                      IN:
           ---                                      ---
              STO-SS =           0.0000                STO-SS =           0.0000     STORAGE                          
                 WEL =           0.0000                   WEL =           0.0000     WEL1                             
                 WEL =       3.0000E-03                   WEL =       5.0000E-04     WEL2                             

            TOTAL IN =       3.0000E-03              TOTAL IN =       5.0000E-04

          OUT:                                     OUT:
          ----                                     ----
              STO-SS =           0.0000                STO-SS =           0.0000     STORAGE                          
                 WEL =       3.0000E-03                   WEL =       5.0000E-04     WEL1                             
                 WEL =           0.0000                   WEL =           0.0000     WEL2                             

           TOTAL OUT =       3.0000E-03             TOTAL OUT =       5.0000E-04

            IN - OUT =       1.2000E-12              IN - OUT =       2.0000E-13

 PERCENT DISCREPANCY =           0.00     PERCENT DISCREPANCY =           0.00




         TIME SUMMARY AT END OF TIME STEP    3 IN STRESS PERIOD    1
                    SECONDS     MINUTES      HOURS       DAYS        YEARS
                    -----------------------------------------------------------
   TIME STEP LENGTH 1.72800E+05  2880.0      48.000      2.0000     5.47570E-03
 STRESS PERIOD TIME 5.18400E+05  8640.0      144.00      6.0000     1.64271E-02
         TOTAL TIME 5.18400E+05  8640.0      144.00      6.0000     1.64271E-02


end timestep


start timestep kper="1" kstp="4" mode="normal"

 UBDSV1 SAVING           STO-SS ON UNIT   1027 AT TIME STEP      4, STRESS PERIOD      1
 UBDSV1 SAVING     FLOW-JA-FACE ON UNIT   1027 AT TIME STEP      4, STRESS PERIOD      1

 WEL PACKAGE (WEL1) FLOW RATES   PERIOD      1   STEP        4
 -----------------------------------------------
   NUMBER   CELLID                    RATE      
 -----------------------------------------------
     1      (1,17,17)            -7.14285714E-05
     2      (1,33,17)            -7.14285714E-05
     3      (1,9,26)             -7.14285714E-05
     4      (1,17,35)            -7.14285714E-05
     5      (1,33,35)            -7.14285714E-05
     6      (1,26,26)            -7.14285714E-05
     7      (1,41,26)            -7.14285714E-05
 -----------------------------------------------




 WEL PACKAGE (WEL2) FLOW RATES   PERIOD      1   STEP        4
 -----------------------------------------------
   NUMBER   CELLID                    RATE      
 -----------------------------------------------
     1      (1,17,26)             2.50000000E-04
     2      (1,33,26)             2.50000000E-04
 -----------------------------------------------




 HEAD WILL BE SAVED ON UNIT 1028 AT END OF TIME STEP    4, STRESS PERIOD    1


  VOLUME BUDGET FOR ENTIRE MODEL AT END OF TIME STEP    4, STRESS PERIOD   1
  ---------------------------------------------------------------------------------------------------

     CUMULATIVE VOLUME      L**3       RATES FOR THIS TIME STEP      L**3/T          PACKAGE NAME    
     ------------------                 ------------------------                     ----------------

           IN:                                      IN:
           ---                                      ---
              STO-SS =           0.0000                STO-SS =           0.0000     STORAGE                          
                 WEL =           0.0000                   WEL =           0.0000     WEL1                             
                 WEL =       4.0000E-03                   WEL =       5.0000E-04     WEL2                             

            TOTAL IN =       4.0000E-03              TOTAL IN =       5.0000E-04

          OUT:                                     OUT:
          ----                                     ----
              STO-SS =           0.0000                STO-SS =           0.0000     STORAGE                          
                 WEL =       4.0000E-03                   WEL =       5.0000E-04     WEL1                             
                 WEL =           0.0000                   WEL =           0.0000     WEL2                             

           TOTAL OUT =       4.0000E-03             TOTAL OUT =       5.0000E-04

            IN - OUT =       1.6000E-12              IN - OUT =       2.0000E-13

 PERCENT DISCREPANCY =           0.00     PERCENT DISCREPANCY =           0.00




         TIME SUMMARY AT END OF TIME STEP    4 IN STRESS PERIOD    1
                    SECONDS     MINUTES      HOURS       DAYS        YEARS
                    -----------------------------------------------------------
   TIME STEP LENGTH 1.72800E+05  2880.0      48.000      2.0000     5.47570E-03
 STRESS PERIOD TIME 6.91200E+05  11520.      192.00      8.0000     2.19028E-02
         TOTAL TIME 6.91200E+05  11520.      192.00      8.0000     2.19028E-02


end timestep


start timestep kper="1" kstp="5" mode="normal"

 UBDSV1 SAVING           STO-SS ON UNIT   1027 AT TIME STEP      5, STRESS PERIOD      1
 UBDSV1 SAVING     FLOW-JA-FACE ON UNIT   1027 AT TIME STEP      5, STRESS PERIOD      1

 WEL PACKAGE (WEL1) FLOW RATES   PERIOD      1   STEP        5
 -----------------------------------------------
   NUMBER   CELLID                    RATE      
 -----------------------------------------------
     1      (1,17,17)            -7.14285714E-05
     2      (1,33,17)            -7.14285714E-05
     3      (1,9,26)             -7.14285714E-05
     4      (1,17,35)            -7.14285714E-05
     5      (1,33,35)            -7.14285714E-05
     6      (1,26,26)            -7.14285714E-05
     7      (1,41,26)            -7.14285714E-05
 -----------------------------------------------




 WEL PACKAGE (WEL2) FLOW RATES   PERIOD      1   STEP        5
 -----------------------------------------------
   NUMBER   CELLID                    RATE      
 -----------------------------------------------
     1      (1,17,26)             2.50000000E-04
     2      (1,33,26)             2.50000000E-04
 -----------------------------------------------




 HEAD WILL BE SAVED ON UNIT 1028 AT END OF TIME STEP    5, STRESS PERIOD    1


  VOLUME BUDGET FOR ENTIRE MODEL AT END OF TIME STEP    5, STRESS PERIOD   1
  ---------------------------------------------------------------------------------------------------

     CUMULATIVE VOLUME      L**3       RATES FOR THIS TIME STEP      L**3/T          PACKAGE NAME    
     ------------------                 ------------------------                     ----------------

           IN:                                      IN:
           ---                                      ---
              STO-SS =           0.0000                STO-SS =           0.0000     STORAGE                          
                 WEL =           0.0000                   WEL =           0.0000     WEL1                             
                 WEL =       5.0000E-03                   WEL =       5.0000E-04     WEL2                             

            TOTAL IN =       5.0000E-03              TOTAL IN =       5.0000E-04

          OUT:                                     OUT:
          ----                                     ----
              STO-SS =           0.0000                STO-SS =           0.0000     STORAGE                          
                 WEL =       5.0000E-03                   WEL =       5.0000E-04     WEL1                             
                 WEL =           0.0000                   WEL =           0.0000     WEL2                             

           TOTAL OUT =       5.0000E-03             TOTAL OUT =       5.0000E-04

            IN - OUT =       2.0000E-12              IN - OUT =       2.0000E-13

 PERCENT DISCREPANCY =           0.00     PERCENT DISCREPANCY =           0.00




         TIME SUMMARY AT END OF TIME STEP    5 IN STRESS PERIOD    1
                    SECONDS     MINUTES      HOURS       DAYS        YEARS
                    -----------------------------------------------------------
   TIME STEP LENGTH 1.72800E+05  2880.0      48.000      2.0000     5.47570E-03
 STRESS PERIOD TIME 8.64000E+05  14400.      240.00      10.000     2.73785E-02
         TOTAL TIME 8.64000E+05  14400.      240.00      10.000     2.73785E-02


end timestep


start timestep kper="1" kstp="6" mode="normal"

 UBDSV1 SAVING           STO-SS ON UNIT   1027 AT TIME STEP      6, STRESS PERIOD      1
 UBDSV1 SAVING     FLOW-JA-FACE ON UNIT   1027 AT TIME STEP      6, STRESS PERIOD      1

 WEL PACKAGE (WEL1) FLOW RATES   PERIOD      1   STEP        6
 -----------------------------------------------
   NUMBER   CELLID                    RATE      
 -----------------------------------------------
     1      (1,17,17)            -7.14285714E-05
     2      (1,33,17)            -7.14285714E-05
     3      (1,9,26)             -7.14285714E-05
     4      (1,17,35)            -7.14285714E-05
     5      (1,33,35)            -7.14285714E-05
     6      (1,26,26)            -7.14285714E-05
     7      (1,41,26)            -7.14285714E-05
 -----------------------------------------------




 WEL PACKAGE (WEL2) FLOW RATES   PERIOD      1   STEP        6
 -----------------------------------------------
   NUMBER   CELLID                    RATE      
 -----------------------------------------------
     1      (1,17,26)             2.50000000E-04
     2      (1,33,26)             2.50000000E-04
 -----------------------------------------------




 HEAD WILL BE SAVED ON UNIT 1028 AT END OF TIME STEP    6, STRESS PERIOD    1


  VOLUME BUDGET FOR ENTIRE MODEL AT END OF TIME STEP    6, STRESS PERIOD   1
  ---------------------------------------------------------------------------------------------------

     CUMULATIVE VOLUME      L**3       RATES FOR THIS TIME STEP      L**3/T          PACKAGE NAME    
     ------------------                 ------------------------                     ----------------

           IN:                                      IN:
           ---                                      ---
              STO-SS =           0.0000                STO-SS =           0.0000     STORAGE                          
                 WEL =           0.0000                   WEL =           0.0000     WEL1                             
                 WEL =       6.0000E-03                   WEL =       5.0000E-04     WEL2                             

            TOTAL IN =       6.0000E-03              TOTAL IN =       5.0000E-04

          OUT:                                     OUT:
          ----                                     ----
              STO-SS =           0.0000                STO-SS =           0.0000     STORAGE                          
                 WEL =       6.0000E-03                   WEL =       5.0000E-04     WEL1                             
                 WEL =           0.0000                   WEL =           0.0000     WEL2                             

           TOTAL OUT =       6.0000E-03             TOTAL OUT =       5.0000E-04

            IN - OUT =       2.4000E-12              IN - OUT =       2.0000E-13

 PERCENT DISCREPANCY =           0.00     PERCENT DISCREPANCY =           0.00




         TIME SUMMARY AT END OF TIME STEP    6 IN STRESS PERIOD    1
                    SECONDS     MINUTES      HOURS       DAYS        YEARS
                    -----------------------------------------------------------
   TIME STEP LENGTH 1.72800E+05  2880.0      48.000      2.0000     5.47570E-03
 STRESS PERIOD TIME 1.03680E+06  17280.      288.00      12.000     3.28542E-02
         TOTAL TIME 1.03680E+06  17280.      288.00      12.000     3.28542E-02


end timestep


start timestep kper="1" kstp="7" mode="normal"

 UBDSV1 SAVING           STO-SS ON UNIT   1027 AT TIME STEP      7, STRESS PERIOD      1
 UBDSV1 SAVING     FLOW-JA-FACE ON UNIT   1027 AT TIME STEP      7, STRESS PERIOD      1

 WEL PACKAGE (WEL1) FLOW RATES   PERIOD      1   STEP        7
 -----------------------------------------------
   NUMBER   CELLID                    RATE      
 -----------------------------------------------
     1      (1,17,17)            -7.14285714E-05
     2      (1,33,17)            -7.14285714E-05
     3      (1,9,26)             -7.14285714E-05
     4      (1,17,35)            -7.14285714E-05
     5      (1,33,35)            -7.14285714E-05
     6      (1,26,26)            -7.14285714E-05
     7      (1,41,26)            -7.14285714E-05
 -----------------------------------------------




 WEL PACKAGE (WEL2) FLOW RATES   PERIOD      1   STEP        7
 -----------------------------------------------
   NUMBER   CELLID                    RATE      
 -----------------------------------------------
     1      (1,17,26)             2.50000000E-04
     2      (1,33,26)             2.50000000E-04
 -----------------------------------------------




 HEAD WILL BE SAVED ON UNIT 1028 AT END OF TIME STEP    7, STRESS PERIOD    1


  VOLUME BUDGET FOR ENTIRE MODEL AT END OF TIME STEP    7, STRESS PERIOD   1
  ---------------------------------------------------------------------------------------------------

     CUMULATIVE VOLUME      L**3       RATES FOR THIS TIME STEP      L**3/T          PACKAGE NAME    
     ------------------                 ------------------------                     ----------------

           IN:                                      IN:
           ---                                      ---
              STO-SS =           0.0000                STO-SS =           0.0000     STORAGE                          
                 WEL =           0.0000                   WEL =           0.0000     WEL1                             
                 WEL =       7.0000E-03                   WEL =       5.0000E-04     WEL2                             

            TOTAL IN =       7.0000E-03              TOTAL IN =       5.0000E-04

          OUT:                                     OUT:
          ----                                     ----
              STO-SS =           0.0000                STO-SS =           0.0000     STORAGE                          
                 WEL =       7.0000E-03                   WEL =       5.0000E-04     WEL1                             
                 WEL =           0.0000                   WEL =           0.0000     WEL2                             

           TOTAL OUT =       7.0000E-03             TOTAL OUT =       5.0000E-04

            IN - OUT =       2.8000E-12              IN - OUT =       2.0000E-13

 PERCENT DISCREPANCY =           0.00     PERCENT DISCREPANCY =           0.00




         TIME SUMMARY AT END OF TIME STEP    7 IN STRESS PERIOD    1
                    SECONDS     MINUTES      HOURS       DAYS        YEARS
                    -----------------------------------------------------------
   TIME STEP LENGTH 1.72800E+05  2880.0      48.000      2.0000     5.47570E-03
 STRESS PERIOD TIME 1.20960E+06  20160.      336.00      14.000     3.83299E-02
         TOTAL TIME 1.20960E+06  20160.      336.00      14.000     3.83299E-02


end timestep


start timestep kper="1" kstp="8" mode="normal"

 UBDSV1 SAVING           STO-SS ON UNIT   1027 AT TIME STEP      8, STRESS PERIOD      1
 UBDSV1 SAVING     FLOW-JA-FACE ON UNIT   1027 AT TIME STEP      8, STRESS PERIOD      1

 WEL PACKAGE (WEL1) FLOW RATES   PERIOD      1   STEP        8
 -----------------------------------------------
   NUMBER   CELLID                    RATE      
 -----------------------------------------------
     1      (1,17,17)            -7.14285714E-05
     2      (1,33,17)            -7.14285714E-05
     3      (1,9,26)             -7.14285714E-05
     4      (1,17,35)            -7.14285714E-05
     5      (1,33,35)            -7.14285714E-05
     6      (1,26,26)            -7.14285714E-05
     7      (1,41,26)            -7.14285714E-05
 -----------------------------------------------




 WEL PACKAGE (WEL2) FLOW RATES   PERIOD      1   STEP        8
 -----------------------------------------------
   NUMBER   CELLID                    RATE      
 -----------------------------------------------
     1      (1,17,26)             2.50000000E-04
     2      (1,33,26)             2.50000000E-04
 -----------------------------------------------




 HEAD WILL BE SAVED ON UNIT 1028 AT END OF TIME STEP    8, STRESS PERIOD    1


  VOLUME BUDGET FOR ENTIRE MODEL AT END OF TIME STEP    8, STRESS PERIOD   1
  ---------------------------------------------------------------------------------------------------

     CUMULATIVE VOLUME      L**3       RATES FOR THIS TIME STEP      L**3/T          PACKAGE NAME    
     ------------------                 ------------------------                     ----------------

           IN:                                      IN:
           ---                                      ---
              STO-SS =           0.0000                STO-SS =           0.0000     STORAGE                          
                 WEL =           0.0000                   WEL =           0.0000     WEL1                             
                 WEL =       8.0000E-03                   WEL =       5.0000E-04     WEL2                             

            TOTAL IN =       8.0000E-03              TOTAL IN =       5.0000E-04

          OUT:                                     OUT:
          ----                                     ----
              STO-SS =           0.0000                STO-SS =           0.0000     STORAGE                          
                 WEL =       8.0000E-03                   WEL =       5.0000E-04     WEL1                             
                 WEL =           0.0000                   WEL =           0.0000     WEL2                             

           TOTAL OUT =       8.0000E-03             TOTAL OUT =       5.0000E-04

            IN - OUT =       3.2000E-12              IN - OUT =       2.0000E-13

 PERCENT DISCREPANCY =           0.00     PERCENT DISCREPANCY =           0.00




         TIME SUMMARY AT END OF TIME STEP    8 IN STRESS PERIOD    1
                    SECONDS     MINUTES      HOURS       DAYS        YEARS
                    -----------------------------------------------------------
   TIME STEP LENGTH 1.72800E+05  2880.0      48.000      2.0000     5.47570E-03
 STRESS PERIOD TIME 1.38240E+06  23040.      384.00      16.000     4.38056E-02
         TOTAL TIME 1.38240E+06  23040.      384.00      16.000     4.38056E-02


end timestep


start timestep kper="1" kstp="9" mode="normal"

 UBDSV1 SAVING           STO-SS ON UNIT   1027 AT TIME STEP      9, STRESS PERIOD      1
 UBDSV1 SAVING     FLOW-JA-FACE ON UNIT   1027 AT TIME STEP      9, STRESS PERIOD      1

 WEL PACKAGE (WEL1) FLOW RATES   PERIOD      1   STEP        9
 -----------------------------------------------
   NUMBER   CELLID                    RATE      
 -----------------------------------------------
     1      (1,17,17)            -7.14285714E-05
     2      (1,33,17)            -7.14285714E-05
     3      (1,9,26)             -7.14285714E-05
     4      (1,17,35)            -7.14285714E-05
     5      (1,33,35)            -7.14285714E-05
     6      (1,26,26)            -7.14285714E-05
     7      (1,41,26)            -7.14285714E-05
 -----------------------------------------------




 WEL PACKAGE (WEL2) FLOW RATES   PERIOD      1   STEP        9
 -----------------------------------------------
   NUMBER   CELLID                    RATE      
 -----------------------------------------------
     1      (1,17,26)             2.50000000E-04
     2      (1,33,26)             2.50000000E-04
 -----------------------------------------------




 HEAD WILL BE SAVED ON UNIT 1028 AT END OF TIME STEP    9, STRESS PERIOD    1


  VOLUME BUDGET FOR ENTIRE MODEL AT END OF TIME STEP    9, STRESS PERIOD   1
  ---------------------------------------------------------------------------------------------------

     CUMULATIVE VOLUME      L**3       RATES FOR THIS TIME STEP      L**3/T          PACKAGE NAME    
     ------------------                 ------------------------                     ----------------

           IN:                                      IN:
           ---                                      ---
              STO-SS =           0.0000                STO-SS =           0.0000     STORAGE                          
                 WEL =           0.0000                   WEL =           0.0000     WEL1                             
                 WEL =       9.0000E-03                   WEL =       5.0000E-04     WEL2                             

            TOTAL IN =       9.0000E-03              TOTAL IN =       5.0000E-04

          OUT:                                     OUT:
          ----                                     ----
              STO-SS =           0.0000                STO-SS =           0.0000     STORAGE                          
                 WEL =       9.0000E-03                   WEL =       5.0000E-04     WEL1                             
                 WEL =           0.0000                   WEL =           0.0000     WEL2                             

           TOTAL OUT =       9.0000E-03             TOTAL OUT =       5.0000E-04

            IN - OUT =       3.6000E-12              IN - OUT =       2.0000E-13

 PERCENT DISCREPANCY =           0.00     PERCENT DISCREPANCY =           0.00




         TIME SUMMARY AT END OF TIME STEP    9 IN STRESS PERIOD    1
                    SECONDS     MINUTES      HOURS       DAYS        YEARS
                    -----------------------------------------------------------
   TIME STEP LENGTH 1.72800E+05  2880.0      48.000      2.0000     5.47570E-03
 STRESS PERIOD TIME 1.55520E+06  25920.      432.00      18.000     4.92813E-02
         TOTAL TIME 1.55520E+06  25920.      432.00      18.000     4.92813E-02


end timestep


start timestep kper="1" kstp="10" mode="normal"

 UBDSV1 SAVING           STO-SS ON UNIT   1027 AT TIME STEP     10, STRESS PERIOD      1
 UBDSV1 SAVING     FLOW-JA-FACE ON UNIT   1027 AT TIME STEP     10, STRESS PERIOD      1

 WEL PACKAGE (WEL1) FLOW RATES   PERIOD      1   STEP       10
 -----------------------------------------------
   NUMBER   CELLID                    RATE      
 -----------------------------------------------
     1      (1,17,17)            -7.14285714E-05
     2      (1,33,17)            -7.14285714E-05
     3      (1,9,26)             -7.14285714E-05
     4      (1,17,35)            -7.14285714E-05
     5      (1,33,35)            -7.14285714E-05
     6      (1,26,26)            -7.14285714E-05
     7      (1,41,26)            -7.14285714E-05
 -----------------------------------------------




 WEL PACKAGE (WEL2) FLOW RATES   PERIOD      1   STEP       10
 -----------------------------------------------
   NUMBER   CELLID                    RATE      
 -----------------------------------------------
     1      (1,17,26)             2.50000000E-04
     2      (1,33,26)             2.50000000E-04
 -----------------------------------------------




 HEAD WILL BE SAVED ON UNIT 1028 AT END OF TIME STEP   10, STRESS PERIOD    1


  VOLUME BUDGET FOR ENTIRE MODEL AT END OF TIME STEP   10, STRESS PERIOD   1
  ---------------------------------------------------------------------------------------------------

     CUMULATIVE VOLUME      L**3       RATES FOR THIS TIME STEP      L**3/T          PACKAGE NAME    
     ------------------                 ------------------------                     ----------------

           IN:                                      IN:
           ---                                      ---
              STO-SS =           0.0000                STO-SS =           0.0000     STORAGE                          
                 WEL =           0.0000                   WEL =           0.0000     WEL1                             
                 WEL =       1.0000E-02                   WEL =       5.0000E-04     WEL2                             

            TOTAL IN =       1.0000E-02              TOTAL IN =       5.0000E-04

          OUT:                                     OUT:
          ----                                     ----
              STO-SS =           0.0000                STO-SS =           0.0000     STORAGE                          
                 WEL =       1.0000E-02                   WEL =       5.0000E-04     WEL1                             
                 WEL =           0.0000                   WEL =           0.0000     WEL2                             

           TOTAL OUT =       1.0000E-02             TOTAL OUT =       5.0000E-04

            IN - OUT =       4.0000E-12              IN - OUT =       2.0000E-13

 PERCENT DISCREPANCY =           0.00     PERCENT DISCREPANCY =           0.00




         TIME SUMMARY AT END OF TIME STEP   10 IN STRESS PERIOD    1
                    SECONDS     MINUTES      HOURS       DAYS        YEARS
                    -----------------------------------------------------------
   TIME STEP LENGTH 1.72800E+05  2880.0      48.000      2.0000     5.47570E-03
 STRESS PERIOD TIME 1.72800E+06  28800.      480.00      20.000     5.47570E-02
         TOTAL TIME 1.72800E+06  28800.      480.00      20.000     5.47570E-02


end timestep


start timestep kper="1" kstp="11" mode="normal"

 UBDSV1 SAVING           STO-SS ON UNIT   1027 AT TIME STEP     11, STRESS PERIOD      1
 UBDSV1 SAVING     FLOW-JA-FACE ON UNIT   1027 AT TIME STEP     11, STRESS PERIOD      1

 WEL PACKAGE (WEL1) FLOW RATES   PERIOD      1   STEP       11
 -----------------------------------------------
   NUMBER   CELLID                    RATE      
 -----------------------------------------------
     1      (1,17,17)            -7.14285714E-05
     2      (1,33,17)            -7.14285714E-05
     3      (1,9,26)             -7.14285714E-05
     4      (1,17,35)            -7.14285714E-05
     5      (1,33,35)            -7.14285714E-05
     6      (1,26,26)            -7.14285714E-05
     7      (1,41,26)            -7.14285714E-05
 -----------------------------------------------




 WEL PACKAGE (WEL2) FLOW RATES   PERIOD      1   STEP       11
 -----------------------------------------------
   NUMBER   CELLID                    RATE      
 -----------------------------------------------
     1      (1,17,26)             2.50000000E-04
     2      (1,33,26)             2.50000000E-04
 -----------------------------------------------




 HEAD WILL BE SAVED ON UNIT 1028 AT END OF TIME STEP   11, STRESS PERIOD    1


  VOLUME BUDGET FOR ENTIRE MODEL AT END OF TIME STEP   11, STRESS PERIOD   1
  ---------------------------------------------------------------------------------------------------

     CUMULATIVE VOLUME      L**3       RATES FOR THIS TIME STEP      L**3/T          PACKAGE NAME    
     ------------------                 ------------------------                     ----------------

           IN:                                      IN:
           ---                                      ---
              STO-SS =           0.0000                STO-SS =           0.0000     STORAGE                          
                 WEL =           0.0000                   WEL =           0.0000     WEL1                             
                 WEL =       1.1000E-02                   WEL =       5.0000E-04     WEL2                             

            TOTAL IN =       1.1000E-02              TOTAL IN =       5.0000E-04

          OUT:                                     OUT:
          ----                                     ----
              STO-SS =           0.0000                STO-SS =           0.0000     STORAGE                          
                 WEL =       1.1000E-02                   WEL =       5.0000E-04     WEL1                             
                 WEL =           0.0000                   WEL =           0.0000     WEL2                             

           TOTAL OUT =       1.1000E-02             TOTAL OUT =       5.0000E-04

            IN - OUT =       4.4000E-12              IN - OUT =       2.0000E-13

 PERCENT DISCREPANCY =           0.00     PERCENT DISCREPANCY =           0.00




         TIME SUMMARY AT END OF TIME STEP   11 IN STRESS PERIOD    1
                    SECONDS     MINUTES      HOURS       DAYS        YEARS
                    -----------------------------------------------------------
   TIME STEP LENGTH 1.72800E+05  2880.0      48.000      2.0000     5.47570E-03
 STRESS PERIOD TIME 1.90080E+06  31680.      528.00      22.000     6.02327E-02
         TOTAL TIME 1.90080E+06  31680.      528.00      22.000     6.02327E-02


end timestep


start timestep kper="1" kstp="12" mode="normal"

 UBDSV1 SAVING           STO-SS ON UNIT   1027 AT TIME STEP     12, STRESS PERIOD      1
 UBDSV1 SAVING     FLOW-JA-FACE ON UNIT   1027 AT TIME STEP     12, STRESS PERIOD      1

 WEL PACKAGE (WEL1) FLOW RATES   PERIOD      1   STEP       12
 -----------------------------------------------
   NUMBER   CELLID                    RATE      
 -----------------------------------------------
     1      (1,17,17)            -7.14285714E-05
     2      (1,33,17)            -7.14285714E-05
     3      (1,9,26)             -7.14285714E-05
     4      (1,17,35)            -7.14285714E-05
     5      (1,33,35)            -7.14285714E-05
     6      (1,26,26)            -7.14285714E-05
     7      (1,41,26)            -7.14285714E-05
 -----------------------------------------------




 WEL PACKAGE (WEL2) FLOW RATES   PERIOD      1   STEP       12
 -----------------------------------------------
   NUMBER   CELLID                    RATE      
 -----------------------------------------------
     1      (1,17,26)             2.50000000E-04
     2      (1,33,26)             2.50000000E-04
 -----------------------------------------------




 HEAD WILL BE SAVED ON UNIT 1028 AT END OF TIME STEP   12, STRESS PERIOD    1


  VOLUME BUDGET FOR ENTIRE MODEL AT END OF TIME STEP   12, STRESS PERIOD   1
  ---------------------------------------------------------------------------------------------------

     CUMULATIVE VOLUME      L**3       RATES FOR THIS TIME STEP      L**3/T          PACKAGE NAME    
     ------------------                 ------------------------                     ----------------

           IN:                                      IN:
           ---                                      ---
              STO-SS =           0.0000                STO-SS =           0.0000     STORAGE                          
                 WEL =           0.0000                   WEL =           0.0000     WEL1                             
                 WEL =       1.2000E-02                   WEL =       5.0000E-04     WEL2                             

            TOTAL IN =       1.2000E-02              TOTAL IN =       5.0000E-04

          OUT:                                     OUT:
          ----                                     ----
              STO-SS =           0.0000                STO-SS =           0.0000     STORAGE                          
                 WEL =       1.2000E-02                   WEL =       5.0000E-04     WEL1                             
                 WEL =           0.0000                   WEL =           0.0000     WEL2                             

           TOTAL OUT =       1.2000E-02             TOTAL OUT =       5.0000E-04

            IN - OUT =       4.8000E-12              IN - OUT =       2.0000E-13

 PERCENT DISCREPANCY =           0.00     PERCENT DISCREPANCY =           0.00




         TIME SUMMARY AT END OF TIME STEP   12 IN STRESS PERIOD    1
                    SECONDS     MINUTES      HOURS       DAYS        YEARS
                    -----------------------------------------------------------
   TIME STEP LENGTH 1.72800E+05  2880.0      48.000      2.0000     5.47570E-03
 STRESS PERIOD TIME 2.07360E+06  34560.      576.00      24.000     6.57084E-02
         TOTAL TIME 2.07360E+06  34560.      576.00      24.000     6.57084E-02


end timestep


start timestep kper="1" kstp="13" mode="normal"

 UBDSV1 SAVING           STO-SS ON UNIT   1027 AT TIME STEP     13, STRESS PERIOD      1
 UBDSV1 SAVING     FLOW-JA-FACE ON UNIT   1027 AT TIME STEP     13, STRESS PERIOD      1

 WEL PACKAGE (WEL1) FLOW RATES   PERIOD      1   STEP       13
 -----------------------------------------------
   NUMBER   CELLID                    RATE      
 -----------------------------------------------
     1      (1,17,17)            -7.14285714E-05
     2      (1,33,17)            -7.14285714E-05
     3      (1,9,26)             -7.14285714E-05
     4      (1,17,35)            -7.14285714E-05
     5      (1,33,35)            -7.14285714E-05
     6      (1,26,26)            -7.14285714E-05
     7      (1,41,26)            -7.14285714E-05
 -----------------------------------------------




 WEL PACKAGE (WEL2) FLOW RATES   PERIOD      1   STEP       13
 -----------------------------------------------
   NUMBER   CELLID                    RATE      
 -----------------------------------------------
     1      (1,17,26)             2.50000000E-04
     2      (1,33,26)             2.50000000E-04
 -----------------------------------------------




 HEAD WILL BE SAVED ON UNIT 1028 AT END OF TIME STEP   13, STRESS PERIOD    1


  VOLUME BUDGET FOR ENTIRE MODEL AT END OF TIME STEP   13, STRESS PERIOD   1
  ---------------------------------------------------------------------------------------------------

     CUMULATIVE VOLUME      L**3       RATES FOR THIS TIME STEP      L**3/T          PACKAGE NAME    
     ------------------                 ------------------------                     ----------------

           IN:                                      IN:
           ---                                      ---
              STO-SS =           0.0000                STO-SS =           0.0000     STORAGE                          
                 WEL =           0.0000                   WEL =           0.0000     WEL1                             
                 WEL =       1.3000E-02                   WEL =       5.0000E-04     WEL2                             

            TOTAL IN =       1.3000E-02              TOTAL IN =       5.0000E-04

          OUT:                                     OUT:
          ----                                     ----
              STO-SS =           0.0000                STO-SS =           0.0000     STORAGE                          
                 WEL =       1.3000E-02                   WEL =       5.0000E-04     WEL1                             
                 WEL =           0.0000                   WEL =           0.0000     WEL2                             

           TOTAL OUT =       1.3000E-02             TOTAL OUT =       5.0000E-04

            IN - OUT =       5.2000E-12              IN - OUT =       2.0000E-13

 PERCENT DISCREPANCY =           0.00     PERCENT DISCREPANCY =           0.00




         TIME SUMMARY AT END OF TIME STEP   13 IN STRESS PERIOD    1
                    SECONDS     MINUTES      HOURS       DAYS        YEARS
                    -----------------------------------------------------------
   TIME STEP LENGTH 1.72800E+05  2880.0      48.000      2.0000     5.47570E-03
 STRESS PERIOD TIME 2.24640E+06  37440.      624.00      26.000     7.11841E-02
         TOTAL TIME 2.24640E+06  37440.      624.00      26.000     7.11841E-02


end timestep


start timestep kper="1" kstp="14" mode="normal"

 UBDSV1 SAVING           STO-SS ON UNIT   1027 AT TIME STEP     14, STRESS PERIOD      1
 UBDSV1 SAVING     FLOW-JA-FACE ON UNIT   1027 AT TIME STEP     14, STRESS PERIOD      1

 WEL PACKAGE (WEL1) FLOW RATES   PERIOD      1   STEP       14
 -----------------------------------------------
   NUMBER   CELLID                    RATE      
 -----------------------------------------------
     1      (1,17,17)            -7.14285714E-05
     2      (1,33,17)            -7.14285714E-05
     3      (1,9,26)             -7.14285714E-05
     4      (1,17,35)            -7.14285714E-05
     5      (1,33,35)            -7.14285714E-05
     6      (1,26,26)            -7.14285714E-05
     7      (1,41,26)            -7.14285714E-05
 -----------------------------------------------




 WEL PACKAGE (WEL2) FLOW RATES   PERIOD      1   STEP       14
 -----------------------------------------------
   NUMBER   CELLID                    RATE      
 -----------------------------------------------
     1      (1,17,26)             2.50000000E-04
     2      (1,33,26)             2.50000000E-04
 -----------------------------------------------




 HEAD WILL BE SAVED ON UNIT 1028 AT END OF TIME STEP   14, STRESS PERIOD    1


  VOLUME BUDGET FOR ENTIRE MODEL AT END OF TIME STEP   14, STRESS PERIOD   1
  ---------------------------------------------------------------------------------------------------

     CUMULATIVE VOLUME      L**3       RATES FOR THIS TIME STEP      L**3/T          PACKAGE NAME    
     ------------------                 ------------------------                     ----------------

           IN:                                      IN:
           ---                                      ---
              STO-SS =           0.0000                STO-SS =           0.0000     STORAGE                          
                 WEL =           0.0000                   WEL =           0.0000     WEL1                             
                 WEL =       1.4000E-02                   WEL =       5.0000E-04     WEL2                             

            TOTAL IN =       1.4000E-02              TOTAL IN =       5.0000E-04

          OUT:                                     OUT:
          ----                                     ----
              STO-SS =           0.0000                STO-SS =           0.0000     STORAGE                          
                 WEL =       1.4000E-02                   WEL =       5.0000E-04     WEL1                             
                 WEL =           0.0000                   WEL =           0.0000     WEL2                             

           TOTAL OUT =       1.4000E-02             TOTAL OUT =       5.0000E-04

            IN - OUT =       5.6000E-12              IN - OUT =       2.0000E-13

 PERCENT DISCREPANCY =           0.00     PERCENT DISCREPANCY =           0.00




         TIME SUMMARY AT END OF TIME STEP   14 IN STRESS PERIOD    1
                    SECONDS     MINUTES      HOURS       DAYS        YEARS
                    -----------------------------------------------------------
   TIME STEP LENGTH 1.72800E+05  2880.0      48.000      2.0000     5.47570E-03
 STRESS PERIOD TIME 2.41920E+06  40320.      672.00      28.000     7.66598E-02
         TOTAL TIME 2.41920E+06  40320.      672.00      28.000     7.66598E-02


end timestep


start timestep kper="1" kstp="15" mode="normal"

 UBDSV1 SAVING           STO-SS ON UNIT   1027 AT TIME STEP     15, STRESS PERIOD      1
 UBDSV1 SAVING     FLOW-JA-FACE ON UNIT   1027 AT TIME STEP     15, STRESS PERIOD      1

 WEL PACKAGE (WEL1) FLOW RATES   PERIOD      1   STEP       15
 -----------------------------------------------
   NUMBER   CELLID                    RATE      
 -----------------------------------------------
     1      (1,17,17)            -7.14285714E-05
     2      (1,33,17)            -7.14285714E-05
     3      (1,9,26)             -7.14285714E-05
     4      (1,17,35)            -7.14285714E-05
     5      (1,33,35)            -7.14285714E-05
     6      (1,26,26)            -7.14285714E-05
     7      (1,41,26)            -7.14285714E-05
 -----------------------------------------------




 WEL PACKAGE (WEL2) FLOW RATES   PERIOD      1   STEP       15
 -----------------------------------------------
   NUMBER   CELLID                    RATE      
 -----------------------------------------------
     1      (1,17,26)             2.50000000E-04
     2      (1,33,26)             2.50000000E-04
 -----------------------------------------------




 HEAD WILL BE SAVED ON UNIT 1028 AT END OF TIME STEP   15, STRESS PERIOD    1


  VOLUME BUDGET FOR ENTIRE MODEL AT END OF TIME STEP   15, STRESS PERIOD   1
  ---------------------------------------------------------------------------------------------------

     CUMULATIVE VOLUME      L**3       RATES FOR THIS TIME STEP      L**3/T          PACKAGE NAME    
     ------------------                 ------------------------                     ----------------

           IN:                                      IN:
           ---                                      ---
              STO-SS =           0.0000                STO-SS =           0.0000     STORAGE                          
                 WEL =           0.0000                   WEL =           0.0000     WEL1                             
                 WEL =       1.5000E-02                   WEL =       5.0000E-04     WEL2                             

            TOTAL IN =       1.5000E-02              TOTAL IN =       5.0000E-04

          OUT:                                     OUT:
          ----                                     ----
              STO-SS =           0.0000                STO-SS =           0.0000     STORAGE                          
                 WEL =       1.5000E-02                   WEL =       5.0000E-04     WEL1                             
                 WEL =           0.0000                   WEL =           0.0000     WEL2                             

           TOTAL OUT =       1.5000E-02             TOTAL OUT =       5.0000E-04

            IN - OUT =       6.0000E-12              IN - OUT =       2.0000E-13

 PERCENT DISCREPANCY =           0.00     PERCENT DISCREPANCY =           0.00




         TIME SUMMARY AT END OF TIME STEP   15 IN STRESS PERIOD    1
                    SECONDS     MINUTES      HOURS       DAYS        YEARS
                    -----------------------------------------------------------
   TIME STEP LENGTH 1.72800E+05  2880.0      48.000      2.0000     5.47570E-03
 STRESS PERIOD TIME 2.59200E+06  43200.      720.00      30.000     8.21355E-02
         TOTAL TIME 2.59200E+06  43200.      720.00      30.000     8.21355E-02


end timestep


start timestep kper="1" kstp="16" mode="normal"

 UBDSV1 SAVING           STO-SS ON UNIT   1027 AT TIME STEP     16, STRESS PERIOD      1
 UBDSV1 SAVING     FLOW-JA-FACE ON UNIT   1027 AT TIME STEP     16, STRESS PERIOD      1

 WEL PACKAGE (WEL1) FLOW RATES   PERIOD      1   STEP       16
 -----------------------------------------------
   NUMBER   CELLID                    RATE      
 -----------------------------------------------
     1      (1,17,17)            -7.14285714E-05
     2      (1,33,17)            -7.14285714E-05
     3      (1,9,26)             -7.14285714E-05
     4      (1,17,35)            -7.14285714E-05
     5      (1,33,35)            -7.14285714E-05
     6      (1,26,26)            -7.14285714E-05
     7      (1,41,26)            -7.14285714E-05
 -----------------------------------------------




 WEL PACKAGE (WEL2) FLOW RATES   PERIOD      1   STEP       16
 -----------------------------------------------
   NUMBER   CELLID                    RATE      
 -----------------------------------------------
     1      (1,17,26)             2.50000000E-04
     2      (1,33,26)             2.50000000E-04
 -----------------------------------------------




 HEAD WILL BE SAVED ON UNIT 1028 AT END OF TIME STEP   16, STRESS PERIOD    1


  VOLUME BUDGET FOR ENTIRE MODEL AT END OF TIME STEP   16, STRESS PERIOD   1
  ---------------------------------------------------------------------------------------------------

     CUMULATIVE VOLUME      L**3       RATES FOR THIS TIME STEP      L**3/T          PACKAGE NAME    
     ------------------                 ------------------------                     ----------------

           IN:                                      IN:
           ---                                      ---
              STO-SS =           0.0000                STO-SS =           0.0000     STORAGE                          
                 WEL =           0.0000                   WEL =           0.0000     WEL1                             
                 WEL =       1.6000E-02                   WEL =       5.0000E-04     WEL2                             

            TOTAL IN =       1.6000E-02              TOTAL IN =       5.0000E-04

          OUT:                                     OUT:
          ----                                     ----
              STO-SS =           0.0000                STO-SS =           0.0000     STORAGE                          
                 WEL =       1.6000E-02                   WEL =       5.0000E-04     WEL1                             
                 WEL =           0.0000                   WEL =           0.0000     WEL2                             

           TOTAL OUT =       1.6000E-02             TOTAL OUT =       5.0000E-04

            IN - OUT =       6.4000E-12              IN - OUT =       2.0000E-13

 PERCENT DISCREPANCY =           0.00     PERCENT DISCREPANCY =           0.00




         TIME SUMMARY AT END OF TIME STEP   16 IN STRESS PERIOD    1
                    SECONDS     MINUTES      HOURS       DAYS        YEARS
                    -----------------------------------------------------------
   TIME STEP LENGTH 1.72800E+05  2880.0      48.000      2.0000     5.47570E-03
 STRESS PERIOD TIME 2.76480E+06  46080.      768.00      32.000     8.76112E-02
         TOTAL TIME 2.76480E+06  46080.      768.00      32.000     8.76112E-02


end timestep


start timestep kper="1" kstp="17" mode="normal"

 UBDSV1 SAVING           STO-SS ON UNIT   1027 AT TIME STEP     17, STRESS PERIOD      1
 UBDSV1 SAVING     FLOW-JA-FACE ON UNIT   1027 AT TIME STEP     17, STRESS PERIOD      1

 WEL PACKAGE (WEL1) FLOW RATES   PERIOD      1   STEP       17
 -----------------------------------------------
   NUMBER   CELLID                    RATE      
 -----------------------------------------------
     1      (1,17,17)            -7.14285714E-05
     2      (1,33,17)            -7.14285714E-05
     3      (1,9,26)             -7.14285714E-05
     4      (1,17,35)            -7.14285714E-05
     5      (1,33,35)            -7.14285714E-05
     6      (1,26,26)            -7.14285714E-05
     7      (1,41,26)            -7.14285714E-05
 -----------------------------------------------




 WEL PACKAGE (WEL2) FLOW RATES   PERIOD      1   STEP       17
 -----------------------------------------------
   NUMBER   CELLID                    RATE      
 -----------------------------------------------
     1      (1,17,26)             2.50000000E-04
     2      (1,33,26)             2.50000000E-04
 -----------------------------------------------




 HEAD WILL BE SAVED ON UNIT 1028 AT END OF TIME STEP   17, STRESS PERIOD    1


  VOLUME BUDGET FOR ENTIRE MODEL AT END OF TIME STEP   17, STRESS PERIOD   1
  ---------------------------------------------------------------------------------------------------

     CUMULATIVE VOLUME      L**3       RATES FOR THIS TIME STEP      L**3/T          PACKAGE NAME    
     ------------------                 ------------------------                     ----------------

           IN:                                      IN:
           ---                                      ---
              STO-SS =           0.0000                STO-SS =           0.0000     STORAGE                          
                 WEL =           0.0000                   WEL =           0.0000     WEL1                             
                 WEL =       1.7000E-02                   WEL =       5.0000E-04     WEL2                             

            TOTAL IN =       1.7000E-02              TOTAL IN =       5.0000E-04

          OUT:                                     OUT:
          ----                                     ----
              STO-SS =           0.0000                STO-SS =           0.0000     STORAGE                          
                 WEL =       1.7000E-02                   WEL =       5.0000E-04     WEL1                             
                 WEL =           0.0000                   WEL =           0.0000     WEL2                             

           TOTAL OUT =       1.7000E-02             TOTAL OUT =       5.0000E-04

            IN - OUT =       6.8000E-12              IN - OUT =       2.0000E-13

 PERCENT DISCREPANCY =           0.00     PERCENT DISCREPANCY =           0.00




         TIME SUMMARY AT END OF TIME STEP   17 IN STRESS PERIOD    1
                    SECONDS     MINUTES      HOURS       DAYS        YEARS
                    -----------------------------------------------------------
   TIME STEP LENGTH 1.72800E+05  2880.0      48.000      2.0000     5.47570E-03
 STRESS PERIOD TIME 2.93760E+06  48960.      816.00      34.000     9.30869E-02
         TOTAL TIME 2.93760E+06  48960.      816.00      34.000     9.30869E-02


end timestep


start timestep kper="1" kstp="18" mode="normal"

 UBDSV1 SAVING           STO-SS ON UNIT   1027 AT TIME STEP     18, STRESS PERIOD      1
 UBDSV1 SAVING     FLOW-JA-FACE ON UNIT   1027 AT TIME STEP     18, STRESS PERIOD      1

 WEL PACKAGE (WEL1) FLOW RATES   PERIOD      1   STEP       18
 -----------------------------------------------
   NUMBER   CELLID                    RATE      
 -----------------------------------------------
     1      (1,17,17)            -7.14285714E-05
     2      (1,33,17)            -7.14285714E-05
     3      (1,9,26)             -7.14285714E-05
     4      (1,17,35)            -7.14285714E-05
     5      (1,33,35)            -7.14285714E-05
     6      (1,26,26)            -7.14285714E-05
     7      (1,41,26)            -7.14285714E-05
 -----------------------------------------------




 WEL PACKAGE (WEL2) FLOW RATES   PERIOD      1   STEP       18
 -----------------------------------------------
   NUMBER   CELLID                    RATE      
 -----------------------------------------------
     1      (1,17,26)             2.50000000E-04
     2      (1,33,26)             2.50000000E-04
 -----------------------------------------------




 HEAD WILL BE SAVED ON UNIT 1028 AT END OF TIME STEP   18, STRESS PERIOD    1


  VOLUME BUDGET FOR ENTIRE MODEL AT END OF TIME STEP   18, STRESS PERIOD   1
  ---------------------------------------------------------------------------------------------------

     CUMULATIVE VOLUME      L**3       RATES FOR THIS TIME STEP      L**3/T          PACKAGE NAME    
     ------------------                 ------------------------                     ----------------

           IN:                                      IN:
           ---                                      ---
              STO-SS =           0.0000                STO-SS =           0.0000     STORAGE                          
                 WEL =           0.0000                   WEL =           0.0000     WEL1                             
                 WEL =       1.8000E-02                   WEL =       5.0000E-04     WEL2                             

            TOTAL IN =       1.8000E-02              TOTAL IN =       5.0000E-04

          OUT:                                     OUT:
          ----                                     ----
              STO-SS =           0.0000                STO-SS =           0.0000     STORAGE                          
                 WEL =       1.8000E-02                   WEL =       5.0000E-04     WEL1                             
                 WEL =           0.0000                   WEL =           0.0000     WEL2                             

           TOTAL OUT =       1.8000E-02             TOTAL OUT =       5.0000E-04

            IN - OUT =       7.2000E-12              IN - OUT =       2.0000E-13

 PERCENT DISCREPANCY =           0.00     PERCENT DISCREPANCY =           0.00




         TIME SUMMARY AT END OF TIME STEP   18 IN STRESS PERIOD    1
                    SECONDS     MINUTES      HOURS       DAYS        YEARS
                    -----------------------------------------------------------
   TIME STEP LENGTH 1.72800E+05  2880.0      48.000      2.0000     5.47570E-03
 STRESS PERIOD TIME 3.11040E+06  51840.      864.00      36.000     9.85626E-02
         TOTAL TIME 3.11040E+06  51840.      864.00      36.000     9.85626E-02


end timestep


start timestep kper="1" kstp="19" mode="normal"

 UBDSV1 SAVING           STO-SS ON UNIT   1027 AT TIME STEP     19, STRESS PERIOD      1
 UBDSV1 SAVING     FLOW-JA-FACE ON UNIT   1027 AT TIME STEP     19, STRESS PERIOD      1

 WEL PACKAGE (WEL1) FLOW RATES   PERIOD      1   STEP       19
 -----------------------------------------------
   NUMBER   CELLID                    RATE      
 -----------------------------------------------
     1      (1,17,17)            -7.14285714E-05
     2      (1,33,17)            -7.14285714E-05
     3      (1,9,26)             -7.14285714E-05
     4      (1,17,35)            -7.14285714E-05
     5      (1,33,35)            -7.14285714E-05
     6      (1,26,26)            -7.14285714E-05
     7      (1,41,26)            -7.14285714E-05
 -----------------------------------------------




 WEL PACKAGE (WEL2) FLOW RATES   PERIOD      1   STEP       19
 -----------------------------------------------
   NUMBER   CELLID                    RATE      
 -----------------------------------------------
     1      (1,17,26)             2.50000000E-04
     2      (1,33,26)             2.50000000E-04
 -----------------------------------------------




 HEAD WILL BE SAVED ON UNIT 1028 AT END OF TIME STEP   19, STRESS PERIOD    1


  VOLUME BUDGET FOR ENTIRE MODEL AT END OF TIME STEP   19, STRESS PERIOD   1
  ---------------------------------------------------------------------------------------------------

     CUMULATIVE VOLUME      L**3       RATES FOR THIS TIME STEP      L**3/T          PACKAGE NAME    
     ------------------                 ------------------------                     ----------------

           IN:                                      IN:
           ---                                      ---
              STO-SS =           0.0000                STO-SS =           0.0000     STORAGE                          
                 WEL =           0.0000                   WEL =           0.0000     WEL1                             
                 WEL =       1.9000E-02                   WEL =       5.0000E-04     WEL2                             

            TOTAL IN =       1.9000E-02              TOTAL IN =       5.0000E-04

          OUT:                                     OUT:
          ----                                     ----
              STO-SS =           0.0000                STO-SS =           0.0000     STORAGE                          
                 WEL =       1.9000E-02                   WEL =       5.0000E-04     WEL1                             
                 WEL =           0.0000                   WEL =           0.0000     WEL2                             

           TOTAL OUT =       1.9000E-02             TOTAL OUT =       5.0000E-04

            IN - OUT =       7.6000E-12              IN - OUT =       2.0000E-13

 PERCENT DISCREPANCY =           0.00     PERCENT DISCREPANCY =           0.00




         TIME SUMMARY AT END OF TIME STEP   19 IN STRESS PERIOD    1
                    SECONDS     MINUTES      HOURS       DAYS        YEARS
                    -----------------------------------------------------------
   TIME STEP LENGTH 1.72800E+05  2880.0      48.000      2.0000     5.47570E-03
 STRESS PERIOD TIME 3.28320E+06  54720.      912.00      38.000     0.10404    
         TOTAL TIME 3.28320E+06  54720.      912.00      38.000     0.10404    


end timestep


start timestep kper="1" kstp="20" mode="normal"

 UBDSV1 SAVING           STO-SS ON UNIT   1027 AT TIME STEP     20, STRESS PERIOD      1
 UBDSV1 SAVING     FLOW-JA-FACE ON UNIT   1027 AT TIME STEP     20, STRESS PERIOD      1

 WEL PACKAGE (WEL1) FLOW RATES   PERIOD      1   STEP       20
 -----------------------------------------------
   NUMBER   CELLID                    RATE      
 -----------------------------------------------
     1      (1,17,17)            -7.14285714E-05
     2      (1,33,17)            -7.14285714E-05
     3      (1,9,26)             -7.14285714E-05
     4      (1,17,35)            -7.14285714E-05
     5      (1,33,35)            -7.14285714E-05
     6      (1,26,26)            -7.14285714E-05
     7      (1,41,26)            -7.14285714E-05
 -----------------------------------------------




 WEL PACKAGE (WEL2) FLOW RATES   PERIOD      1   STEP       20
 -----------------------------------------------
   NUMBER   CELLID                    RATE      
 -----------------------------------------------
     1      (1,17,26)             2.50000000E-04
     2      (1,33,26)             2.50000000E-04
 -----------------------------------------------




 HEAD WILL BE SAVED ON UNIT 1028 AT END OF TIME STEP   20, STRESS PERIOD    1


  VOLUME BUDGET FOR ENTIRE MODEL AT END OF TIME STEP   20, STRESS PERIOD   1
  ---------------------------------------------------------------------------------------------------

     CUMULATIVE VOLUME      L**3       RATES FOR THIS TIME STEP      L**3/T          PACKAGE NAME    
     ------------------                 ------------------------                     ----------------

           IN:                                      IN:
           ---                                      ---
              STO-SS =           0.0000                STO-SS =           0.0000     STORAGE                          
                 WEL =           0.0000                   WEL =           0.0000     WEL1                             
                 WEL =       2.0000E-02                   WEL =       5.0000E-04     WEL2                             

            TOTAL IN =       2.0000E-02              TOTAL IN =       5.0000E-04

          OUT:                                     OUT:
          ----                                     ----
              STO-SS =           0.0000                STO-SS =           0.0000     STORAGE                          
                 WEL =       2.0000E-02                   WEL =       5.0000E-04     WEL1                             
                 WEL =           0.0000                   WEL =           0.0000     WEL2                             

           TOTAL OUT =       2.0000E-02             TOTAL OUT =       5.0000E-04

            IN - OUT =       8.0000E-12              IN - OUT =       2.0000E-13

 PERCENT DISCREPANCY =           0.00     PERCENT DISCREPANCY =           0.00




         TIME SUMMARY AT END OF TIME STEP   20 IN STRESS PERIOD    1
                    SECONDS     MINUTES      HOURS       DAYS        YEARS
                    -----------------------------------------------------------
   TIME STEP LENGTH 1.72800E+05  2880.0      48.000      2.0000     5.47570E-03
 STRESS PERIOD TIME 3.45600E+06  57600.      960.00      40.000     0.10951    
         TOTAL TIME 3.45600E+06  57600.      960.00      40.000     0.10951    


end timestep


start timestep kper="1" kstp="21" mode="normal"

 UBDSV1 SAVING           STO-SS ON UNIT   1027 AT TIME STEP     21, STRESS PERIOD      1
 UBDSV1 SAVING     FLOW-JA-FACE ON UNIT   1027 AT TIME STEP     21, STRESS PERIOD      1

 WEL PACKAGE (WEL1) FLOW RATES   PERIOD      1   STEP       21
 -----------------------------------------------
   NUMBER   CELLID                    RATE      
 -----------------------------------------------
     1      (1,17,17)            -7.14285714E-05
     2      (1,33,17)            -7.14285714E-05
     3      (1,9,26)             -7.14285714E-05
     4      (1,17,35)            -7.14285714E-05
     5      (1,33,35)            -7.14285714E-05
     6      (1,26,26)            -7.14285714E-05
     7      (1,41,26)            -7.14285714E-05
 -----------------------------------------------




 WEL PACKAGE (WEL2) FLOW RATES   PERIOD      1   STEP       21
 -----------------------------------------------
   NUMBER   CELLID                    RATE      
 -----------------------------------------------
     1      (1,17,26)             2.50000000E-04
     2      (1,33,26)             2.50000000E-04
 -----------------------------------------------




 HEAD WILL BE SAVED ON UNIT 1028 AT END OF TIME STEP   21, STRESS PERIOD    1


  VOLUME BUDGET FOR ENTIRE MODEL AT END OF TIME STEP   21, STRESS PERIOD   1
  ---------------------------------------------------------------------------------------------------

     CUMULATIVE VOLUME      L**3       RATES FOR THIS TIME STEP      L**3/T          PACKAGE NAME    
[...]


  VOLUME BUDGET FOR ENTIRE MODEL AT END OF TIME STEP   70, STRESS PERIOD   2
  ---------------------------------------------------------------------------------------------------

     CUMULATIVE VOLUME      L**3       RATES FOR THIS TIME STEP      L**3/T          PACKAGE NAME    
     ------------------                 ------------------------                     ----------------

           IN:                                      IN:
           ---                                      ---
              STO-SS =           0.0000                STO-SS =           0.0000     STORAGE                          
                 WEL =           0.0000                   WEL =           0.0000     WEL1                             
                 WEL =           0.1700                   WEL =       5.0000E-04     WEL2                             

            TOTAL IN =           0.1700              TOTAL IN =       5.0000E-04

          OUT:                                     OUT:
          ----                                     ----
              STO-SS =           0.0000                STO-SS =           0.0000     STORAGE                          
                 WEL =           0.1700                   WEL =       5.0000E-04     WEL1                             
                 WEL =           0.0000                   WEL =           0.0000     WEL2                             

           TOTAL OUT =           0.1700             TOTAL OUT =       5.0000E-04

            IN - OUT =       4.0000E-11              IN - OUT =      -1.0842E-19

 PERCENT DISCREPANCY =           0.00     PERCENT DISCREPANCY =          -0.00




         TIME SUMMARY AT END OF TIME STEP   70 IN STRESS PERIOD    2
                    SECONDS     MINUTES      HOURS       DAYS        YEARS
                    -----------------------------------------------------------
   TIME STEP LENGTH 1.72800E+05  2880.0      48.000      2.0000     5.47570E-03
 STRESS PERIOD TIME 1.20960E+07 2.01600E+05  3360.0      140.00     0.38330    
         TOTAL TIME 2.93760E+07 4.89600E+05  8160.0      340.00     0.93087    


end timestep


start timestep kper="2" kstp="71" mode="normal"

 UBDSV1 SAVING           STO-SS ON UNIT   1027 AT TIME STEP     71, STRESS PERIOD      2
 UBDSV1 SAVING     FLOW-JA-FACE ON UNIT   1027 AT TIME STEP     71, STRESS PERIOD      2

 WEL PACKAGE (WEL1) FLOW RATES   PERIOD      2   STEP       71
 -----------------------------------------------
   NUMBER   CELLID                    RATE      
 -----------------------------------------------
     1      (1,17,17)            -5.00000000E-05
     2      (1,33,17)            -5.00000000E-05
     3      (1,9,26)             -5.00000000E-05
     4      (1,17,35)            -5.00000000E-05
     5      (1,33,35)            -5.00000000E-05
     6      (1,26,26)            -5.00000000E-05
     7      (1,41,26)            -5.00000000E-05
     8      (1,4,39)             -5.00000000E-05
     9      (1,27,3)             -5.00000000E-05
     10     (1,46,46)            -5.00000000E-05
 -----------------------------------------------




 WEL PACKAGE (WEL2) FLOW RATES   PERIOD      2   STEP       71
 -----------------------------------------------
   NUMBER   CELLID                    RATE      
 -----------------------------------------------
     1      (1,17,26)             2.50000000E-04
     2      (1,33,26)             2.50000000E-04
 -----------------------------------------------




 HEAD WILL BE SAVED ON UNIT 1028 AT END OF TIME STEP   71, STRESS PERIOD    2


  VOLUME BUDGET FOR ENTIRE MODEL AT END OF TIME STEP   71, STRESS PERIOD   2
  ---------------------------------------------------------------------------------------------------

     CUMULATIVE VOLUME      L**3       RATES FOR THIS TIME STEP      L**3/T          PACKAGE NAME    
     ------------------                 ------------------------                     ----------------

           IN:                                      IN:
           ---                                      ---
              STO-SS =           0.0000                STO-SS =           0.0000     STORAGE                          
                 WEL =           0.0000                   WEL =           0.0000     WEL1                             
                 WEL =           0.1710                   WEL =       5.0000E-04     WEL2                             

            TOTAL IN =           0.1710              TOTAL IN =       5.0000E-04

          OUT:                                     OUT:
          ----                                     ----
              STO-SS =           0.0000                STO-SS =           0.0000     STORAGE                          
                 WEL =           0.1710                   WEL =       5.0000E-04     WEL1                             
                 WEL =           0.0000                   WEL =           0.0000     WEL2                             

           TOTAL OUT =           0.1710             TOTAL OUT =       5.0000E-04

            IN - OUT =       4.0000E-11              IN - OUT =      -1.0842E-19

 PERCENT DISCREPANCY =           0.00     PERCENT DISCREPANCY =          -0.00




         TIME SUMMARY AT END OF TIME STEP   71 IN STRESS PERIOD    2
                    SECONDS     MINUTES      HOURS       DAYS        YEARS
                    -----------------------------------------------------------
   TIME STEP LENGTH 1.72800E+05  2880.0      48.000      2.0000     5.47570E-03
 STRESS PERIOD TIME 1.22688E+07 2.04480E+05  3408.0      142.00     0.38877    
         TOTAL TIME 2.95488E+07 4.92480E+05  8208.0      342.00     0.93634    


end timestep


start timestep kper="2" kstp="72" mode="normal"

 UBDSV1 SAVING           STO-SS ON UNIT   1027 AT TIME STEP     72, STRESS PERIOD      2
 UBDSV1 SAVING     FLOW-JA-FACE ON UNIT   1027 AT TIME STEP     72, STRESS PERIOD      2

 WEL PACKAGE (WEL1) FLOW RATES   PERIOD      2   STEP       72
 -----------------------------------------------
   NUMBER   CELLID                    RATE      
 -----------------------------------------------
     1      (1,17,17)            -5.00000000E-05
     2      (1,33,17)            -5.00000000E-05
     3      (1,9,26)             -5.00000000E-05
     4      (1,17,35)            -5.00000000E-05
     5      (1,33,35)            -5.00000000E-05
     6      (1,26,26)            -5.00000000E-05
     7      (1,41,26)            -5.00000000E-05
     8      (1,4,39)             -5.00000000E-05
     9      (1,27,3)             -5.00000000E-05
     10     (1,46,46)            -5.00000000E-05
 -----------------------------------------------




 WEL PACKAGE (WEL2) FLOW RATES   PERIOD      2   STEP       72
 -----------------------------------------------
   NUMBER   CELLID                    RATE      
 -----------------------------------------------
     1      (1,17,26)             2.50000000E-04
     2      (1,33,26)             2.50000000E-04
 -----------------------------------------------




 HEAD WILL BE SAVED ON UNIT 1028 AT END OF TIME STEP   72, STRESS PERIOD    2


  VOLUME BUDGET FOR ENTIRE MODEL AT END OF TIME STEP   72, STRESS PERIOD   2
  ---------------------------------------------------------------------------------------------------

     CUMULATIVE VOLUME      L**3       RATES FOR THIS TIME STEP      L**3/T          PACKAGE NAME    
     ------------------                 ------------------------                     ----------------

           IN:                                      IN:
           ---                                      ---
              STO-SS =           0.0000                STO-SS =           0.0000     STORAGE                          
                 WEL =           0.0000                   WEL =           0.0000     WEL1                             
                 WEL =           0.1720                   WEL =       5.0000E-04     WEL2                             

            TOTAL IN =           0.1720              TOTAL IN =       5.0000E-04

          OUT:                                     OUT:
          ----                                     ----
              STO-SS =           0.0000                STO-SS =           0.0000     STORAGE                          
                 WEL =           0.1720                   WEL =       5.0000E-04     WEL1                             
                 WEL =           0.0000                   WEL =           0.0000     WEL2                             

           TOTAL OUT =           0.1720             TOTAL OUT =       5.0000E-04

            IN - OUT =       4.0000E-11              IN - OUT =      -1.0842E-19

 PERCENT DISCREPANCY =           0.00     PERCENT DISCREPANCY =          -0.00




         TIME SUMMARY AT END OF TIME STEP   72 IN STRESS PERIOD    2
                    SECONDS     MINUTES      HOURS       DAYS        YEARS
                    -----------------------------------------------------------
   TIME STEP LENGTH 1.72800E+05  2880.0      48.000      2.0000     5.47570E-03
 STRESS PERIOD TIME 1.24416E+07 2.07360E+05  3456.0      144.00     0.39425    
         TOTAL TIME 2.97216E+07 4.95360E+05  8256.0      344.00     0.94182    


end timestep


start timestep kper="2" kstp="73" mode="normal"

 UBDSV1 SAVING           STO-SS ON UNIT   1027 AT TIME STEP     73, STRESS PERIOD      2
 UBDSV1 SAVING     FLOW-JA-FACE ON UNIT   1027 AT TIME STEP     73, STRESS PERIOD      2

 WEL PACKAGE (WEL1) FLOW RATES   PERIOD      2   STEP       73
 -----------------------------------------------
   NUMBER   CELLID                    RATE      
 -----------------------------------------------
     1      (1,17,17)            -5.00000000E-05
     2      (1,33,17)            -5.00000000E-05
     3      (1,9,26)             -5.00000000E-05
     4      (1,17,35)            -5.00000000E-05
     5      (1,33,35)            -5.00000000E-05
     6      (1,26,26)            -5.00000000E-05
     7      (1,41,26)            -5.00000000E-05
     8      (1,4,39)             -5.00000000E-05
     9      (1,27,3)             -5.00000000E-05
     10     (1,46,46)            -5.00000000E-05
 -----------------------------------------------




 WEL PACKAGE (WEL2) FLOW RATES   PERIOD      2   STEP       73
 -----------------------------------------------
   NUMBER   CELLID                    RATE      
 -----------------------------------------------
     1      (1,17,26)             2.50000000E-04
     2      (1,33,26)             2.50000000E-04
 -----------------------------------------------




 HEAD WILL BE SAVED ON UNIT 1028 AT END OF TIME STEP   73, STRESS PERIOD    2


  VOLUME BUDGET FOR ENTIRE MODEL AT END OF TIME STEP   73, STRESS PERIOD   2
  ---------------------------------------------------------------------------------------------------

     CUMULATIVE VOLUME      L**3       RATES FOR THIS TIME STEP      L**3/T          PACKAGE NAME    
     ------------------                 ------------------------                     ----------------

           IN:                                      IN:
           ---                                      ---
              STO-SS =           0.0000                STO-SS =           0.0000     STORAGE                          
                 WEL =           0.0000                   WEL =           0.0000     WEL1                             
                 WEL =           0.1730                   WEL =       5.0000E-04     WEL2                             

            TOTAL IN =           0.1730              TOTAL IN =       5.0000E-04

          OUT:                                     OUT:
          ----                                     ----
              STO-SS =           0.0000                STO-SS =           0.0000     STORAGE                          
                 WEL =           0.1730                   WEL =       5.0000E-04     WEL1                             
                 WEL =           0.0000                   WEL =           0.0000     WEL2                             

           TOTAL OUT =           0.1730             TOTAL OUT =       5.0000E-04

            IN - OUT =       4.0000E-11              IN - OUT =      -1.0842E-19

 PERCENT DISCREPANCY =           0.00     PERCENT DISCREPANCY =          -0.00




         TIME SUMMARY AT END OF TIME STEP   73 IN STRESS PERIOD    2
                    SECONDS     MINUTES      HOURS       DAYS        YEARS
                    -----------------------------------------------------------
   TIME STEP LENGTH 1.72800E+05  2880.0      48.000      2.0000     5.47570E-03
 STRESS PERIOD TIME 1.26144E+07 2.10240E+05  3504.0      146.00     0.39973    
         TOTAL TIME 2.98944E+07 4.98240E+05  8304.0      346.00     0.94730    


end timestep


start timestep kper="2" kstp="74" mode="normal"

 UBDSV1 SAVING           STO-SS ON UNIT   1027 AT TIME STEP     74, STRESS PERIOD      2
 UBDSV1 SAVING     FLOW-JA-FACE ON UNIT   1027 AT TIME STEP     74, STRESS PERIOD      2

 WEL PACKAGE (WEL1) FLOW RATES   PERIOD      2   STEP       74
 -----------------------------------------------
   NUMBER   CELLID                    RATE      
 -----------------------------------------------
     1      (1,17,17)            -5.00000000E-05
     2      (1,33,17)            -5.00000000E-05
     3      (1,9,26)             -5.00000000E-05
     4      (1,17,35)            -5.00000000E-05
     5      (1,33,35)            -5.00000000E-05
     6      (1,26,26)            -5.00000000E-05
     7      (1,41,26)            -5.00000000E-05
     8      (1,4,39)             -5.00000000E-05
     9      (1,27,3)             -5.00000000E-05
     10     (1,46,46)            -5.00000000E-05
 -----------------------------------------------




 WEL PACKAGE (WEL2) FLOW RATES   PERIOD      2   STEP       74
 -----------------------------------------------
   NUMBER   CELLID                    RATE      
 -----------------------------------------------
     1      (1,17,26)             2.50000000E-04
     2      (1,33,26)             2.50000000E-04
 -----------------------------------------------




 HEAD WILL BE SAVED ON UNIT 1028 AT END OF TIME STEP   74, STRESS PERIOD    2


  VOLUME BUDGET FOR ENTIRE MODEL AT END OF TIME STEP   74, STRESS PERIOD   2
  ---------------------------------------------------------------------------------------------------

     CUMULATIVE VOLUME      L**3       RATES FOR THIS TIME STEP      L**3/T          PACKAGE NAME    
     ------------------                 ------------------------                     ----------------

           IN:                                      IN:
           ---                                      ---
              STO-SS =           0.0000                STO-SS =           0.0000     STORAGE                          
                 WEL =           0.0000                   WEL =           0.0000     WEL1                             
                 WEL =           0.1740                   WEL =       5.0000E-04     WEL2                             

            TOTAL IN =           0.1740              TOTAL IN =       5.0000E-04

          OUT:                                     OUT:
          ----                                     ----
              STO-SS =           0.0000                STO-SS =           0.0000     STORAGE                          
                 WEL =           0.1740                   WEL =       5.0000E-04     WEL1                             
                 WEL =           0.0000                   WEL =           0.0000     WEL2                             

           TOTAL OUT =           0.1740             TOTAL OUT =       5.0000E-04

            IN - OUT =       4.0000E-11              IN - OUT =      -1.0842E-19

 PERCENT DISCREPANCY =           0.00     PERCENT DISCREPANCY =          -0.00




         TIME SUMMARY AT END OF TIME STEP   74 IN STRESS PERIOD    2
                    SECONDS     MINUTES      HOURS       DAYS        YEARS
                    -----------------------------------------------------------
   TIME STEP LENGTH 1.72800E+05  2880.0      48.000      2.0000     5.47570E-03
 STRESS PERIOD TIME 1.27872E+07 2.13120E+05  3552.0      148.00     0.40520    
         TOTAL TIME 3.00672E+07 5.01120E+05  8352.0      348.00     0.95277    


end timestep


start timestep kper="2" kstp="75" mode="normal"

 UBDSV1 SAVING           STO-SS ON UNIT   1027 AT TIME STEP     75, STRESS PERIOD      2
 UBDSV1 SAVING     FLOW-JA-FACE ON UNIT   1027 AT TIME STEP     75, STRESS PERIOD      2

 WEL PACKAGE (WEL1) FLOW RATES   PERIOD      2   STEP       75
 -----------------------------------------------
   NUMBER   CELLID                    RATE      
 -----------------------------------------------
     1      (1,17,17)            -5.00000000E-05
     2      (1,33,17)            -5.00000000E-05
     3      (1,9,26)             -5.00000000E-05
     4      (1,17,35)            -5.00000000E-05
     5      (1,33,35)            -5.00000000E-05
     6      (1,26,26)            -5.00000000E-05
     7      (1,41,26)            -5.00000000E-05
     8      (1,4,39)             -5.00000000E-05
     9      (1,27,3)             -5.00000000E-05
     10     (1,46,46)            -5.00000000E-05
 -----------------------------------------------




 WEL PACKAGE (WEL2) FLOW RATES   PERIOD      2   STEP       75
 -----------------------------------------------
   NUMBER   CELLID                    RATE      
 -----------------------------------------------
     1      (1,17,26)             2.50000000E-04
     2      (1,33,26)             2.50000000E-04
 -----------------------------------------------




 HEAD WILL BE SAVED ON UNIT 1028 AT END OF TIME STEP   75, STRESS PERIOD    2


  VOLUME BUDGET FOR ENTIRE MODEL AT END OF TIME STEP   75, STRESS PERIOD   2
  ---------------------------------------------------------------------------------------------------

     CUMULATIVE VOLUME      L**3       RATES FOR THIS TIME STEP      L**3/T          PACKAGE NAME    
     ------------------                 ------------------------                     ----------------

           IN:                                      IN:
           ---                                      ---
              STO-SS =           0.0000                STO-SS =           0.0000     STORAGE                          
                 WEL =           0.0000                   WEL =           0.0000     WEL1                             
                 WEL =           0.1750                   WEL =       5.0000E-04     WEL2                             

            TOTAL IN =           0.1750              TOTAL IN =       5.0000E-04

          OUT:                                     OUT:
          ----                                     ----
              STO-SS =           0.0000                STO-SS =           0.0000     STORAGE                          
                 WEL =           0.1750                   WEL =       5.0000E-04     WEL1                             
                 WEL =           0.0000                   WEL =           0.0000     WEL2                             

           TOTAL OUT =           0.1750             TOTAL OUT =       5.0000E-04

            IN - OUT =       4.0000E-11              IN - OUT =      -1.0842E-19

 PERCENT DISCREPANCY =           0.00     PERCENT DISCREPANCY =          -0.00




         TIME SUMMARY AT END OF TIME STEP   75 IN STRESS PERIOD    2
                    SECONDS     MINUTES      HOURS       DAYS        YEARS
                    -----------------------------------------------------------
   TIME STEP LENGTH 1.72800E+05  2880.0      48.000      2.0000     5.47570E-03
 STRESS PERIOD TIME 1.29600E+07 2.16000E+05  3600.0      150.00     0.41068    
         TOTAL TIME 3.02400E+07 5.04000E+05  8400.0      350.00     0.95825    


end timestep


start timestep kper="2" kstp="76" mode="normal"

