                                   MODFLOW 6
                U.S. GEOLOGICAL SURVEY MODULAR HYDROLOGIC MODEL
                       GROUNDWATER TRANSPORT MODEL (GWT)
                        VERSION 6.4.1 Release 12/09/2022

   MODFLOW 6 compiled Dec 09 2022 18:18:37 with Intel(R) Fortran Intel(R) 64
   Compiler Classic for applications running on Intel(R) 64, Version 2021.7.0
                             Build 20220726_000000

This software has been approved for release by the U.S. Geological 
Survey (USGS). Although the software has been subjected to rigorous 
review, the USGS reserves the right to update the software as needed 
pursuant to further analysis and review. No warranty, expressed or 
implied, is made by the USGS or the U.S. Government as to the 
functionality of the software and related material nor shall the 
fact of release constitute any such warranty. Furthermore, the 
software is released on condition that neither the USGS nor the U.S. 
Government shall be held liable for any damages resulting from its 
authorized or unauthorized use. Also refer to the USGS Water 
Resources Software User Rights Notice for complete use, copyright, 
and distribution information.


As a work of the United States Government, this USGS product is 
in the public domain within the United States. You can copy, 
modify, distribute, and perform the work, even for commercial 
purposes, all without asking permission. Additionally, USGS 
waives copyright and related rights in the work worldwide 
through CC0 1.0 Universal Public Domain Dedication 
(https://creativecommons.org/publicdomain/zero/1.0/).

The following GNU Lesser General Public License (LGPL) libraries
are used in this USGS product:

    SPARSKIT version 2.0
      ilut, luson, and qsplit 
      (https://www-users.cse.umn.edu/~saad/software/SPARSKIT/)

    RCM - Reverse Cuthill McKee Ordering
      (https://people.math.sc.edu/Burkardt/f_src/rcm/rcm.html)

    BLAS - Basic Linear Algebra Subprograms Level 1
      (https://people.math.sc.edu/Burkardt/f_src/blas1_d/blas1_d.html)

    SPARSEKIT - Sparse Matrix Utility Package
      amux, dperm, dvperm, rperm, and cperm
      (https://people.sc.fsu.edu/~jburkardt/f77_src/sparsekit/sparsekit.html)

The following BSD-3 License libraries are used in this USGS product:

    Modern Fortran DAG Library
      Copyright (c) 2018, Jacob Williams
      All rights reserved.
      (https://github.com/jacobwilliams/daglib)

MODFLOW 6 compiler options: /Isrc\libmf6core.a.p /Isrc /I..\src
/Isrc\libmf6_external.a.p /MTd /nologo /warn:general /warn:truncated_source
/stand:f08 /Zi /traceback /O2 /fpe:0 /heap-arrays:0 /traceback /fpp
/Qdiag-disable:7416 /Qdiag-disable:7025 /Qdiag-disable:5268
/Fdsrc\libmf6core.a.p\Utilities_compilerversion.F90.pdb
/module:src\libmf6core.a.p
/Fosrc/libmf6core.a.p/Utilities_compilerversion.F90.obj /c

System command used to initiate simulation:
C:\Workspace\opaz0002\mf6.4.1\bin\mf6.EXE

MODFLOW was compiled using uniform precision.

Real Variables
  KIND: 8
  TINY (smallest non-zero value):    2.225074-308
  HUGE (largest value):    1.797693+308
  PRECISION: 15
  SIZE IN BITS: 64

Integer Variables
  KIND: 4
  HUGE (largest value): 2147483647
  SIZE IN BITS: 32

Long Integer Variables
  KIND: 8
  HUGE (largest value): 9223372036854775807
  SIZE IN BITS: 64

Logical Variables
  KIND: 4
  SIZE IN BITS: 32
 

 OPENED sva_tm_t.dis
 FILE TYPE:DIS6                   UNIT 1016   STATUS:OLD                 
 FORMAT:FORMATTED              ACCESS:SEQUENTIAL          
 ACTION:READ                


 OPENED sva_tm_t.ic
 FILE TYPE:IC6                    UNIT 1017   STATUS:OLD                 
 FORMAT:FORMATTED              ACCESS:SEQUENTIAL          
 ACTION:READ                


 OPENED sva_tm_t.adv
 FILE TYPE:ADV6                   UNIT 1018   STATUS:OLD                 
 FORMAT:FORMATTED              ACCESS:SEQUENTIAL          
 ACTION:READ                


 OPENED sva_tm_t.dsp
 FILE TYPE:DSP6                   UNIT 1019   STATUS:OLD                 
 FORMAT:FORMATTED              ACCESS:SEQUENTIAL          
 ACTION:READ                


 OPENED sva_tm_t.mst
 FILE TYPE:MST6                   UNIT 1020   STATUS:OLD                 
 FORMAT:FORMATTED              ACCESS:SEQUENTIAL          
 ACTION:READ                


 OPENED sva_tm_t.ssm
 FILE TYPE:SSM6                   UNIT 1021   STATUS:OLD                 
 FORMAT:FORMATTED              ACCESS:SEQUENTIAL          
 ACTION:READ                


 OPENED sva_tm_t.oc
 FILE TYPE:OC6                    UNIT 1022   STATUS:OLD                 
 FORMAT:FORMATTED              ACCESS:SEQUENTIAL          
 ACTION:READ                


 OPENED sva_tm_t.obs
 FILE TYPE:OBS6                   UNIT 1023   STATUS:OLD                 
 FORMAT:FORMATTED              ACCESS:SEQUENTIAL          
 ACTION:READ                

 NAMEFILE OPTIONS:
    FLOWS WILL BE SAVED TO BUDGET FILE SPECIFIED IN OUTPUT CONTROL

 DIS -- STRUCTURED GRID DISCRETIZATION PACKAGE, VERSION 2 : 3/27/2014 - INPUT READ FROM UNIT 1016

 Loading input for SVA_TM_T/DIS
 # File generated by Flopy version 3.3.6 on 10/30/2023 at 12:35:44.
   NLAY = 1
   NROW = 50
   NCOL = 50
   DELR = .2000000000000000E-01
   DELC = .2000000000000000E-01
   TOP = .000000000000000
   BOTM = -1.000000000000000
   IDOMAIN = 1
 Loading input complete...


 DSP-- DISPERSION PACKAGE, VERSION 1, 1/24/2018 INPUT READ FROM UNIT 1019


 Loading input for SVA_TM_T/DSP
 # File generated by Flopy version 3.3.6 on 10/30/2023 at 12:35:44.
   XT3D_OFF = 1
   ALH = .5000000000000000E-02
   ATH1 = .5000000000000000E-03
 Loading input complete...

 Setting Discretization Options
 End Setting Discretization Options

 Setting Discretization Dimensions
    NLAY = 1
    NROW = 50
    NCOL = 50
 End Setting Discretization Dimensions

 Setting Discretization Griddata
    DELR set from input file
    DELC set from input file
    TOP set from input file
    BOTM set from input file
    IDOMAIN set from input file
 End Setting Discretization Griddata


 FMI -- FLOW MODEL INTERFACE, VERSION 1, 8/29/2017
  FLOWS PROVIDED BY A GWF MODEL IN THIS SIMULATION

 ADV-- ADVECTION PACKAGE, VERSION 1, 8/25/2017 INPUT READ FROM UNIT 1018


 # File generated by Flopy version 3.3.6 on 10/30/2023 at 12:35:44.
 PROCESSING ADVECTION OPTIONS
    ADVECTION WEIGHTING SCHEME HAS BEEN SET TO: TVD
 END OF ADVECTION OPTIONS
 Setting DSP Options
    XT3D formulation [0=INACTIVE, 1=ACTIVE, 3=ACTIVE RHS] set to: 0
 End Setting DSP Options

 Setting DSP Griddata
    ALH set from input file
    ATH1 set from input file
 End Setting DSP Griddata


 IC -- INITIAL CONDITIONS PACKAGE, VERSION 8, 3/28/2015 INPUT READ FROM UNIT 1017
 # File generated by Flopy version 3.3.6 on 10/30/2023 at 12:35:44.
 PROCESSING GRIDDATA

 INITIAL CONCENTRATION =   0.000000    
 END PROCESSING GRIDDATA

 MST -- MOBILE STORAGE AND TRANSFER PACKAGE, VERSION 1, 7/29/2020 INPUT READ FROM UNIT 1020


 # File generated by Flopy version 3.3.6 on 10/30/2023 at 12:35:44.
 PROCESSING MOBILE STORAGE AND TRANSFER OPTIONS
 END OF MOBILE STORAGE AND TRANSFER OPTIONS
 PROCESSING GRIDDATA

   MOBILE DOMAIN POROSITY =  0.2500000    
 END PROCESSING GRIDDATA

 SSM -- SOURCE-SINK MIXING PACKAGE, VERSION 1, 8/25/2017 INPUT READ FROM UNIT 1021


 # File generated by Flopy version 3.3.6 on 10/30/2023 at 12:35:44.
 PROCESSING SSM OPTIONS
 END OF SSM OPTIONS
 PROCESSING SOURCES
 AUX SOURCE DETECTED.
    USING AUX COLUMN 1 IN PACKAGE WEL2
 END PROCESSING SOURCES
 OPTIONAL FILEINPUT BLOCK NOT FOUND.  CONTINUING.

The observation utility is active for "SVA_TM_T"
 # File generated by Flopy version 3.3.6 on 10/30/2023 at 12:35:44.

Processing observation options:

Text output number of digits of precision set to:  4

      THE LAST TIME STEP WILL BE PRINTED
      THE LAST TIME STEP WILL BE PRINTED
 # File generated by Flopy version 3.3.6 on 10/30/2023 at 12:35:44.

 PROCESSING OC OPTIONS

    BUDGET INFORMATION WILL BE WRITTEN TO:
      UNIT NUMBER: 1030
      FILE NAME: sva_tm_t.cbc

 OPENED sva_tm_t.cbc
 FILE TYPE:DATA(BINARY)   UNIT 1030   STATUS:REPLACE             
 FORMAT:UNFORMATTED            ACCESS:STREAM              
 ACTION:READWRITE           

    CONCENTRATION INFORMATION WILL BE WRITTEN TO:
      UNIT NUMBER: 1031
      FILE NAME: sva_tm_t.ucn

 OPENED sva_tm_t.ucn
 FILE TYPE:DATA(BINARY)   UNIT 1031   STATUS:REPLACE             
 FORMAT:UNFORMATTED            ACCESS:STREAM              
 ACTION:READWRITE           

 END OF OC OPTIONS

start timestep kper="1" kstp="1" mode="normal"


 BEGIN READING OUTPUT CONTROL FOR STRESS PERIOD 1
      ALL TIME STEPS WILL BE SAVED
      ALL TIME STEPS WILL BE SAVED
      THE LAST TIME STEP WILL BE PRINTED
      ALL TIME STEPS WILL BE PRINTED

 END READING OUTPUT CONTROL FOR STRESS PERIOD 1
 UBDSV1 SAVING     FLOW-JA-FACE ON UNIT   1030 AT TIME STEP      1, STRESS PERIOD      1
 UBDSV1 SAVING  STORAGE-AQUEOUS ON UNIT   1030 AT TIME STEP      1, STRESS PERIOD      1
 UBDSV06 SAVING  SOURCE-SINK MIX IN MODEL SVA_TM_T         PACKAGE SVA_TM_T        CONNECTED TO MODEL SVA_TM_T         PACKAGE SSM              ON UNIT   1030 AT TIME STEP      1, STRESS PERIOD      1

 CONCENTRATION WILL BE SAVED ON UNIT 1031 AT END OF TIME STEP    1, STRESS PERIOD    1


  MASS BUDGET FOR ENTIRE MODEL AT END OF TIME STEP    1, STRESS PERIOD   1
  ---------------------------------------------------------------------------------------------------

     CUMULATIVE MASS      M       RATES FOR THIS TIME STEP      M/T          PACKAGE NAME    
     ------------------                 ------------------------                     ----------------

           IN:                                      IN:
           ---                                      ---
     STORAGE-AQUEOUS =       7.0086E-12       STORAGE-AQUEOUS =       3.5043E-12     MST                              
                 WEL =           0.0000                   WEL =           0.0000     SSM_WEL1                         
                 WEL =       1.0000E-03                   WEL =       5.0000E-04     SSM_WEL2                         

            TOTAL IN =       1.0000E-03              TOTAL IN =       5.0000E-04

          OUT:                                     OUT:
          ----                                     ----
     STORAGE-AQUEOUS =       1.0000E-03       STORAGE-AQUEOUS =       5.0000E-04     MST                              
                 WEL =       1.2949E-09                   WEL =       6.4743E-10     SSM_WEL1                         
                 WEL =           0.0000                   WEL =           0.0000     SSM_WEL2                         

           TOTAL OUT =       1.0000E-03             TOTAL OUT =       5.0000E-04

            IN - OUT =      -3.6214E-10              IN - OUT =      -1.8107E-10

 PERCENT DISCREPANCY =          -0.00     PERCENT DISCREPANCY =          -0.00




         TIME SUMMARY AT END OF TIME STEP    1 IN STRESS PERIOD    1
                    SECONDS     MINUTES      HOURS       DAYS        YEARS
                    -----------------------------------------------------------
   TIME STEP LENGTH 1.72800E+05  2880.0      48.000      2.0000     5.47570E-03
 STRESS PERIOD TIME 1.72800E+05  2880.0      48.000      2.0000     5.47570E-03
         TOTAL TIME 1.72800E+05  2880.0      48.000      2.0000     5.47570E-03


end timestep


start timestep kper="1" kstp="2" mode="normal"

 UBDSV1 SAVING     FLOW-JA-FACE ON UNIT   1030 AT TIME STEP      2, STRESS PERIOD      1
 UBDSV1 SAVING  STORAGE-AQUEOUS ON UNIT   1030 AT TIME STEP      2, STRESS PERIOD      1
 UBDSV06 SAVING  SOURCE-SINK MIX IN MODEL SVA_TM_T         PACKAGE SVA_TM_T        CONNECTED TO MODEL SVA_TM_T         PACKAGE SSM              ON UNIT   1030 AT TIME STEP      2, STRESS PERIOD      1

 CONCENTRATION WILL BE SAVED ON UNIT 1031 AT END OF TIME STEP    2, STRESS PERIOD    1


  MASS BUDGET FOR ENTIRE MODEL AT END OF TIME STEP    2, STRESS PERIOD   1
  ---------------------------------------------------------------------------------------------------

     CUMULATIVE MASS      M       RATES FOR THIS TIME STEP      M/T          PACKAGE NAME    
     ------------------                 ------------------------                     ----------------

           IN:                                      IN:
           ---                                      ---
     STORAGE-AQUEOUS =       8.2160E-12       STORAGE-AQUEOUS =       6.0369E-13     MST                              
                 WEL =           0.0000                   WEL =           0.0000     SSM_WEL1                         
                 WEL =       2.0000E-03                   WEL =       5.0000E-04     SSM_WEL2                         

            TOTAL IN =       2.0000E-03              TOTAL IN =       5.0000E-04

          OUT:                                     OUT:
          ----                                     ----
     STORAGE-AQUEOUS =       2.0000E-03       STORAGE-AQUEOUS =       4.9999E-04     MST                              
                 WEL =       1.4115E-08                   WEL =       6.4100E-09     SSM_WEL1                         
                 WEL =           0.0000                   WEL =           0.0000     SSM_WEL2                         

           TOTAL OUT =       2.0000E-03             TOTAL OUT =       5.0000E-04

            IN - OUT =       8.7804E-11              IN - OUT =       2.2497E-10

 PERCENT DISCREPANCY =           0.00     PERCENT DISCREPANCY =           0.00




         TIME SUMMARY AT END OF TIME STEP    2 IN STRESS PERIOD    1
                    SECONDS     MINUTES      HOURS       DAYS        YEARS
                    -----------------------------------------------------------
   TIME STEP LENGTH 1.72800E+05  2880.0      48.000      2.0000     5.47570E-03
 STRESS PERIOD TIME 3.45600E+05  5760.0      96.000      4.0000     1.09514E-02
         TOTAL TIME 3.45600E+05  5760.0      96.000      4.0000     1.09514E-02


end timestep


start timestep kper="1" kstp="3" mode="normal"

 UBDSV1 SAVING     FLOW-JA-FACE ON UNIT   1030 AT TIME STEP      3, STRESS PERIOD      1
 UBDSV1 SAVING  STORAGE-AQUEOUS ON UNIT   1030 AT TIME STEP      3, STRESS PERIOD      1
 UBDSV06 SAVING  SOURCE-SINK MIX IN MODEL SVA_TM_T         PACKAGE SVA_TM_T        CONNECTED TO MODEL SVA_TM_T         PACKAGE SSM              ON UNIT   1030 AT TIME STEP      3, STRESS PERIOD      1

 CONCENTRATION WILL BE SAVED ON UNIT 1031 AT END OF TIME STEP    3, STRESS PERIOD    1


  MASS BUDGET FOR ENTIRE MODEL AT END OF TIME STEP    3, STRESS PERIOD   1
  ---------------------------------------------------------------------------------------------------

     CUMULATIVE MASS      M       RATES FOR THIS TIME STEP      M/T          PACKAGE NAME    
     ------------------                 ------------------------                     ----------------

           IN:                                      IN:
           ---                                      ---
     STORAGE-AQUEOUS =       8.6679E-12       STORAGE-AQUEOUS =       2.2595E-13     MST                              
                 WEL =           0.0000                   WEL =           0.0000     SSM_WEL1                         
                 WEL =       3.0000E-03                   WEL =       5.0000E-04     SSM_WEL2                         

            TOTAL IN =       3.0000E-03              TOTAL IN =       5.0000E-04

          OUT:                                     OUT:
          ----                                     ----
     STORAGE-AQUEOUS =       2.9999E-03       STORAGE-AQUEOUS =       4.9996E-04     MST                              
                 WEL =       8.3708E-08                   WEL =       3.4797E-08     SSM_WEL1                         
                 WEL =           0.0000                   WEL =           0.0000     SSM_WEL2                         

           TOTAL OUT =       3.0000E-03             TOTAL OUT =       5.0000E-04

            IN - OUT =       1.3828E-09              IN - OUT =       6.4749E-10

 PERCENT DISCREPANCY =           0.00     PERCENT DISCREPANCY =           0.00




         TIME SUMMARY AT END OF TIME STEP    3 IN STRESS PERIOD    1
                    SECONDS     MINUTES      HOURS       DAYS        YEARS
                    -----------------------------------------------------------
   TIME STEP LENGTH 1.72800E+05  2880.0      48.000      2.0000     5.47570E-03
 STRESS PERIOD TIME 5.18400E+05  8640.0      144.00      6.0000     1.64271E-02
         TOTAL TIME 5.18400E+05  8640.0      144.00      6.0000     1.64271E-02


end timestep


start timestep kper="1" kstp="4" mode="normal"

 UBDSV1 SAVING     FLOW-JA-FACE ON UNIT   1030 AT TIME STEP      4, STRESS PERIOD      1
 UBDSV1 SAVING  STORAGE-AQUEOUS ON UNIT   1030 AT TIME STEP      4, STRESS PERIOD      1
 UBDSV06 SAVING  SOURCE-SINK MIX IN MODEL SVA_TM_T         PACKAGE SVA_TM_T        CONNECTED TO MODEL SVA_TM_T         PACKAGE SSM              ON UNIT   1030 AT TIME STEP      4, STRESS PERIOD      1

 CONCENTRATION WILL BE SAVED ON UNIT 1031 AT END OF TIME STEP    4, STRESS PERIOD    1


  MASS BUDGET FOR ENTIRE MODEL AT END OF TIME STEP    4, STRESS PERIOD   1
  ---------------------------------------------------------------------------------------------------

     CUMULATIVE MASS      M       RATES FOR THIS TIME STEP      M/T          PACKAGE NAME    
     ------------------                 ------------------------                     ----------------

           IN:                                      IN:
           ---                                      ---
     STORAGE-AQUEOUS =       8.8539E-12       STORAGE-AQUEOUS =       9.3040E-14     MST                              
                 WEL =           0.0000                   WEL =           0.0000     SSM_WEL1                         
                 WEL =       4.0000E-03                   WEL =       5.0000E-04     SSM_WEL2                         

            TOTAL IN =       4.0000E-03              TOTAL IN =       5.0000E-04

          OUT:                                     OUT:
          ----                                     ----
     STORAGE-AQUEOUS =       3.9996E-03       STORAGE-AQUEOUS =       4.9987E-04     MST                              
                 WEL =       3.4791E-07                   WEL =       1.3210E-07     SSM_WEL1                         
                 WEL =           0.0000                   WEL =           0.0000     SSM_WEL2                         

           TOTAL OUT =       4.0000E-03             TOTAL OUT =       5.0000E-04

            IN - OUT =       2.9340E-09              IN - OUT =       7.7563E-10

 PERCENT DISCREPANCY =           0.00     PERCENT DISCREPANCY =           0.00




         TIME SUMMARY AT END OF TIME STEP    4 IN STRESS PERIOD    1
                    SECONDS     MINUTES      HOURS       DAYS        YEARS
                    -----------------------------------------------------------
   TIME STEP LENGTH 1.72800E+05  2880.0      48.000      2.0000     5.47570E-03
 STRESS PERIOD TIME 6.91200E+05  11520.      192.00      8.0000     2.19028E-02
         TOTAL TIME 6.91200E+05  11520.      192.00      8.0000     2.19028E-02


end timestep


start timestep kper="1" kstp="5" mode="normal"

 UBDSV1 SAVING     FLOW-JA-FACE ON UNIT   1030 AT TIME STEP      5, STRESS PERIOD      1
 UBDSV1 SAVING  STORAGE-AQUEOUS ON UNIT   1030 AT TIME STEP      5, STRESS PERIOD      1
 UBDSV06 SAVING  SOURCE-SINK MIX IN MODEL SVA_TM_T         PACKAGE SVA_TM_T        CONNECTED TO MODEL SVA_TM_T         PACKAGE SSM              ON UNIT   1030 AT TIME STEP      5, STRESS PERIOD      1

 CONCENTRATION WILL BE SAVED ON UNIT 1031 AT END OF TIME STEP    5, STRESS PERIOD    1


  MASS BUDGET FOR ENTIRE MODEL AT END OF TIME STEP    5, STRESS PERIOD   1
  ---------------------------------------------------------------------------------------------------

     CUMULATIVE MASS      M       RATES FOR THIS TIME STEP      M/T          PACKAGE NAME    
     ------------------                 ------------------------                     ----------------

           IN:                                      IN:
           ---                                      ---
     STORAGE-AQUEOUS =       8.8994E-12       STORAGE-AQUEOUS =       2.2713E-14     MST                              
                 WEL =           0.0000                   WEL =           0.0000     SSM_WEL1                         
                 WEL =       5.0000E-03                   WEL =       5.0000E-04     SSM_WEL2                         

            TOTAL IN =       5.0000E-03              TOTAL IN =       5.0000E-04

          OUT:                                     OUT:
          ----                                     ----
     STORAGE-AQUEOUS =       4.9989E-03       STORAGE-AQUEOUS =       4.9961E-04     MST                              
                 WEL =       1.1289E-06                   WEL =       3.9050E-07     SSM_WEL1                         
                 WEL =           0.0000                   WEL =           0.0000     SSM_WEL2                         

           TOTAL OUT =       5.0000E-03             TOTAL OUT =       5.0000E-04

            IN - OUT =       6.2790E-09              IN - OUT =       1.6725E-09

 PERCENT DISCREPANCY =           0.00     PERCENT DISCREPANCY =           0.00




         TIME SUMMARY AT END OF TIME STEP    5 IN STRESS PERIOD    1
                    SECONDS     MINUTES      HOURS       DAYS        YEARS
                    -----------------------------------------------------------
   TIME STEP LENGTH 1.72800E+05  2880.0      48.000      2.0000     5.47570E-03
 STRESS PERIOD TIME 8.64000E+05  14400.      240.00      10.000     2.73785E-02
         TOTAL TIME 8.64000E+05  14400.      240.00      10.000     2.73785E-02


end timestep


start timestep kper="1" kstp="6" mode="normal"

 UBDSV1 SAVING     FLOW-JA-FACE ON UNIT   1030 AT TIME STEP      6, STRESS PERIOD      1
 UBDSV1 SAVING  STORAGE-AQUEOUS ON UNIT   1030 AT TIME STEP      6, STRESS PERIOD      1
 UBDSV06 SAVING  SOURCE-SINK MIX IN MODEL SVA_TM_T         PACKAGE SVA_TM_T        CONNECTED TO MODEL SVA_TM_T         PACKAGE SSM              ON UNIT   1030 AT TIME STEP      6, STRESS PERIOD      1

 CONCENTRATION WILL BE SAVED ON UNIT 1031 AT END OF TIME STEP    6, STRESS PERIOD    1


  MASS BUDGET FOR ENTIRE MODEL AT END OF TIME STEP    6, STRESS PERIOD   1
  ---------------------------------------------------------------------------------------------------

     CUMULATIVE MASS      M       RATES FOR THIS TIME STEP      M/T          PACKAGE NAME    
     ------------------                 ------------------------                     ----------------

           IN:                                      IN:
           ---                                      ---
     STORAGE-AQUEOUS =       8.9222E-12       STORAGE-AQUEOUS =       1.1425E-14     MST                              
                 WEL =           0.0000                   WEL =           0.0000     SSM_WEL1                         
                 WEL =       6.0000E-03                   WEL =       5.0000E-04     SSM_WEL2                         

            TOTAL IN =       6.0000E-03              TOTAL IN =       5.0000E-04

          OUT:                                     OUT:
          ----                                     ----
     STORAGE-AQUEOUS =       5.9970E-03       STORAGE-AQUEOUS =       4.9904E-04     MST                              
                 WEL =       3.0400E-06                   WEL =       9.5555E-07     SSM_WEL1                         
                 WEL =           0.0000                   WEL =           0.0000     SSM_WEL2                         

           TOTAL OUT =       6.0000E-03             TOTAL OUT =       5.0000E-04

            IN - OUT =       9.3011E-09              IN - OUT =       1.5111E-09

 PERCENT DISCREPANCY =           0.00     PERCENT DISCREPANCY =           0.00




         TIME SUMMARY AT END OF TIME STEP    6 IN STRESS PERIOD    1
                    SECONDS     MINUTES      HOURS       DAYS        YEARS
                    -----------------------------------------------------------
   TIME STEP LENGTH 1.72800E+05  2880.0      48.000      2.0000     5.47570E-03
 STRESS PERIOD TIME 1.03680E+06  17280.      288.00      12.000     3.28542E-02
         TOTAL TIME 1.03680E+06  17280.      288.00      12.000     3.28542E-02


end timestep


start timestep kper="1" kstp="7" mode="normal"

 UBDSV1 SAVING     FLOW-JA-FACE ON UNIT   1030 AT TIME STEP      7, STRESS PERIOD      1
 UBDSV1 SAVING  STORAGE-AQUEOUS ON UNIT   1030 AT TIME STEP      7, STRESS PERIOD      1
 UBDSV06 SAVING  SOURCE-SINK MIX IN MODEL SVA_TM_T         PACKAGE SVA_TM_T        CONNECTED TO MODEL SVA_TM_T         PACKAGE SSM              ON UNIT   1030 AT TIME STEP      7, STRESS PERIOD      1

 CONCENTRATION WILL BE SAVED ON UNIT 1031 AT END OF TIME STEP    7, STRESS PERIOD    1


  MASS BUDGET FOR ENTIRE MODEL AT END OF TIME STEP    7, STRESS PERIOD   1
  ---------------------------------------------------------------------------------------------------

     CUMULATIVE MASS      M       RATES FOR THIS TIME STEP      M/T          PACKAGE NAME    
     ------------------                 ------------------------                     ----------------

           IN:                                      IN:
           ---                                      ---
     STORAGE-AQUEOUS =       8.9240E-12       STORAGE-AQUEOUS =       8.9977E-16     MST                              
                 WEL =           0.0000                   WEL =           0.0000     SSM_WEL1                         
                 WEL =       7.0000E-03                   WEL =       5.0000E-04     SSM_WEL2                         

            TOTAL IN =       7.0000E-03              TOTAL IN =       5.0000E-04

          OUT:                                     OUT:
          ----                                     ----
     STORAGE-AQUEOUS =       6.9929E-03       STORAGE-AQUEOUS =       4.9798E-04     MST                              
                 WEL =       7.0684E-06                   WEL =       2.0142E-06     SSM_WEL1                         
                 WEL =           0.0000                   WEL =           0.0000     SSM_WEL2                         

           TOTAL OUT =       7.0000E-03             TOTAL OUT =       5.0000E-04

            IN - OUT =       1.6232E-08              IN - OUT =       3.4655E-09

 PERCENT DISCREPANCY =           0.00     PERCENT DISCREPANCY =           0.00




         TIME SUMMARY AT END OF TIME STEP    7 IN STRESS PERIOD    1
                    SECONDS     MINUTES      HOURS       DAYS        YEARS
                    -----------------------------------------------------------
   TIME STEP LENGTH 1.72800E+05  2880.0      48.000      2.0000     5.47570E-03
 STRESS PERIOD TIME 1.20960E+06  20160.      336.00      14.000     3.83299E-02
         TOTAL TIME 1.20960E+06  20160.      336.00      14.000     3.83299E-02


end timestep


start timestep kper="1" kstp="8" mode="normal"

 UBDSV1 SAVING     FLOW-JA-FACE ON UNIT   1030 AT TIME STEP      8, STRESS PERIOD      1
 UBDSV1 SAVING  STORAGE-AQUEOUS ON UNIT   1030 AT TIME STEP      8, STRESS PERIOD      1
 UBDSV06 SAVING  SOURCE-SINK MIX IN MODEL SVA_TM_T         PACKAGE SVA_TM_T        CONNECTED TO MODEL SVA_TM_T         PACKAGE SSM              ON UNIT   1030 AT TIME STEP      8, STRESS PERIOD      1

 CONCENTRATION WILL BE SAVED ON UNIT 1031 AT END OF TIME STEP    8, STRESS PERIOD    1


  MASS BUDGET FOR ENTIRE MODEL AT END OF TIME STEP    8, STRESS PERIOD   1
  ---------------------------------------------------------------------------------------------------

     CUMULATIVE MASS      M       RATES FOR THIS TIME STEP      M/T          PACKAGE NAME    
     ------------------                 ------------------------                     ----------------

           IN:                                      IN:
           ---                                      ---
     STORAGE-AQUEOUS =       8.9252E-12       STORAGE-AQUEOUS =       5.9293E-16     MST                              
                 WEL =           0.0000                   WEL =           0.0000     SSM_WEL1                         
                 WEL =       8.0000E-03                   WEL =       5.0000E-04     SSM_WEL2                         

            TOTAL IN =       8.0000E-03              TOTAL IN =       5.0000E-04

          OUT:                                     OUT:
          ----                                     ----
     STORAGE-AQUEOUS =       7.9854E-03       STORAGE-AQUEOUS =       4.9623E-04     MST                              
                 WEL =       1.4597E-05                   WEL =       3.7644E-06     SSM_WEL1                         
                 WEL =           0.0000                   WEL =           0.0000     SSM_WEL2                         

           TOTAL OUT =       8.0000E-03             TOTAL OUT =       5.0000E-04

            IN - OUT =       2.1788E-08              IN - OUT =       2.7778E-09

 PERCENT DISCREPANCY =           0.00     PERCENT DISCREPANCY =           0.00




         TIME SUMMARY AT END OF TIME STEP    8 IN STRESS PERIOD    1
                    SECONDS     MINUTES      HOURS       DAYS        YEARS
                    -----------------------------------------------------------
   TIME STEP LENGTH 1.72800E+05  2880.0      48.000      2.0000     5.47570E-03
 STRESS PERIOD TIME 1.38240E+06  23040.      384.00      16.000     4.38056E-02
         TOTAL TIME 1.38240E+06  23040.      384.00      16.000     4.38056E-02


end timestep


start timestep kper="1" kstp="9" mode="normal"

 UBDSV1 SAVING     FLOW-JA-FACE ON UNIT   1030 AT TIME STEP      9, STRESS PERIOD      1
 UBDSV1 SAVING  STORAGE-AQUEOUS ON UNIT   1030 AT TIME STEP      9, STRESS PERIOD      1
 UBDSV06 SAVING  SOURCE-SINK MIX IN MODEL SVA_TM_T         PACKAGE SVA_TM_T        CONNECTED TO MODEL SVA_TM_T         PACKAGE SSM              ON UNIT   1030 AT TIME STEP      9, STRESS PERIOD      1

 CONCENTRATION WILL BE SAVED ON UNIT 1031 AT END OF TIME STEP    9, STRESS PERIOD    1


  MASS BUDGET FOR ENTIRE MODEL AT END OF TIME STEP    9, STRESS PERIOD   1
  ---------------------------------------------------------------------------------------------------

     CUMULATIVE MASS      M       RATES FOR THIS TIME STEP      M/T          PACKAGE NAME    
     ------------------                 ------------------------                     ----------------

           IN:                                      IN:
           ---                                      ---
     STORAGE-AQUEOUS =       8.9259E-12       STORAGE-AQUEOUS =       3.5949E-16     MST                              
                 WEL =           0.0000                   WEL =           0.0000     SSM_WEL1                         
                 WEL =       9.0000E-03                   WEL =       5.0000E-04     SSM_WEL2                         

            TOTAL IN =       9.0000E-03              TOTAL IN =       5.0000E-04

          OUT:                                     OUT:
          ----                                     ----
     STORAGE-AQUEOUS =       8.9726E-03       STORAGE-AQUEOUS =       4.9362E-04     MST                              
                 WEL =       2.7348E-05                   WEL =       6.3753E-06     SSM_WEL1                         
                 WEL =           0.0000                   WEL =           0.0000     SSM_WEL2                         

           TOTAL OUT =       9.0000E-03             TOTAL OUT =       5.0000E-04

            IN - OUT =       2.6682E-08              IN - OUT =       2.4471E-09

 PERCENT DISCREPANCY =           0.00     PERCENT DISCREPANCY =           0.00




         TIME SUMMARY AT END OF TIME STEP    9 IN STRESS PERIOD    1
                    SECONDS     MINUTES      HOURS       DAYS        YEARS
                    -----------------------------------------------------------
   TIME STEP LENGTH 1.72800E+05  2880.0      48.000      2.0000     5.47570E-03
 STRESS PERIOD TIME 1.55520E+06  25920.      432.00      18.000     4.92813E-02
         TOTAL TIME 1.55520E+06  25920.      432.00      18.000     4.92813E-02


end timestep


start timestep kper="1" kstp="10" mode="normal"

 UBDSV1 SAVING     FLOW-JA-FACE ON UNIT   1030 AT TIME STEP     10, STRESS PERIOD      1
 UBDSV1 SAVING  STORAGE-AQUEOUS ON UNIT   1030 AT TIME STEP     10, STRESS PERIOD      1
 UBDSV06 SAVING  SOURCE-SINK MIX IN MODEL SVA_TM_T         PACKAGE SVA_TM_T        CONNECTED TO MODEL SVA_TM_T         PACKAGE SSM              ON UNIT   1030 AT TIME STEP     10, STRESS PERIOD      1

 CONCENTRATION WILL BE SAVED ON UNIT 1031 AT END OF TIME STEP   10, STRESS PERIOD    1


  MASS BUDGET FOR ENTIRE MODEL AT END OF TIME STEP   10, STRESS PERIOD   1
  ---------------------------------------------------------------------------------------------------

     CUMULATIVE MASS      M       RATES FOR THIS TIME STEP      M/T          PACKAGE NAME    
     ------------------                 ------------------------                     ----------------

           IN:                                      IN:
           ---                                      ---
     STORAGE-AQUEOUS =       8.9263E-12       STORAGE-AQUEOUS =       1.7929E-16     MST                              
                 WEL =           0.0000                   WEL =           0.0000     SSM_WEL1                         
                 WEL =       1.0000E-02                   WEL =       5.0000E-04     SSM_WEL2                         

            TOTAL IN =       1.0000E-02              TOTAL IN =       5.0000E-04

          OUT:                                     OUT:
          ----                                     ----
     STORAGE-AQUEOUS =       9.9527E-03       STORAGE-AQUEOUS =       4.9004E-04     MST                              
                 WEL =       4.7262E-05                   WEL =       9.9569E-06     SSM_WEL1                         
                 WEL =           0.0000                   WEL =           0.0000     SSM_WEL2                         

           TOTAL OUT =       1.0000E-02             TOTAL OUT =       5.0000E-04

            IN - OUT =       3.1475E-08              IN - OUT =       2.3967E-09

 PERCENT DISCREPANCY =           0.00     PERCENT DISCREPANCY =           0.00




         TIME SUMMARY AT END OF TIME STEP   10 IN STRESS PERIOD    1
                    SECONDS     MINUTES      HOURS       DAYS        YEARS
                    -----------------------------------------------------------
   TIME STEP LENGTH 1.72800E+05  2880.0      48.000      2.0000     5.47570E-03
 STRESS PERIOD TIME 1.72800E+06  28800.      480.00      20.000     5.47570E-02
         TOTAL TIME 1.72800E+06  28800.      480.00      20.000     5.47570E-02


end timestep


start timestep kper="1" kstp="11" mode="normal"

 UBDSV1 SAVING     FLOW-JA-FACE ON UNIT   1030 AT TIME STEP     11, STRESS PERIOD      1
 UBDSV1 SAVING  STORAGE-AQUEOUS ON UNIT   1030 AT TIME STEP     11, STRESS PERIOD      1
 UBDSV06 SAVING  SOURCE-SINK MIX IN MODEL SVA_TM_T         PACKAGE SVA_TM_T        CONNECTED TO MODEL SVA_TM_T         PACKAGE SSM              ON UNIT   1030 AT TIME STEP     11, STRESS PERIOD      1

 CONCENTRATION WILL BE SAVED ON UNIT 1031 AT END OF TIME STEP   11, STRESS PERIOD    1


  MASS BUDGET FOR ENTIRE MODEL AT END OF TIME STEP   11, STRESS PERIOD   1
  ---------------------------------------------------------------------------------------------------

     CUMULATIVE MASS      M       RATES FOR THIS TIME STEP      M/T          PACKAGE NAME    
     ------------------                 ------------------------                     ----------------

           IN:                                      IN:
           ---                                      ---
     STORAGE-AQUEOUS =       8.9265E-12       STORAGE-AQUEOUS =       1.0213E-16     MST                              
                 WEL =           0.0000                   WEL =           0.0000     SSM_WEL1                         
                 WEL =       1.1000E-02                   WEL =       5.0000E-04     SSM_WEL2                         

            TOTAL IN =       1.1000E-02              TOTAL IN =       5.0000E-04

          OUT:                                     OUT:
          ----                                     ----
     STORAGE-AQUEOUS =       1.0924E-02       STORAGE-AQUEOUS =       4.8545E-04     MST                              
                 WEL =       7.6350E-05                   WEL =       1.4544E-05     SSM_WEL1                         
                 WEL =           0.0000                   WEL =           0.0000     SSM_WEL2                         

           TOTAL OUT =       1.1000E-02             TOTAL OUT =       5.0000E-04

            IN - OUT =       3.5001E-08              IN - OUT =       1.7628E-09

 PERCENT DISCREPANCY =           0.00     PERCENT DISCREPANCY =           0.00




         TIME SUMMARY AT END OF TIME STEP   11 IN STRESS PERIOD    1
                    SECONDS     MINUTES      HOURS       DAYS        YEARS
                    -----------------------------------------------------------
   TIME STEP LENGTH 1.72800E+05  2880.0      48.000      2.0000     5.47570E-03
 STRESS PERIOD TIME 1.90080E+06  31680.      528.00      22.000     6.02327E-02
         TOTAL TIME 1.90080E+06  31680.      528.00      22.000     6.02327E-02


end timestep


start timestep kper="1" kstp="12" mode="normal"

 UBDSV1 SAVING     FLOW-JA-FACE ON UNIT   1030 AT TIME STEP     12, STRESS PERIOD      1
 UBDSV1 SAVING  STORAGE-AQUEOUS ON UNIT   1030 AT TIME STEP     12, STRESS PERIOD      1
 UBDSV06 SAVING  SOURCE-SINK MIX IN MODEL SVA_TM_T         PACKAGE SVA_TM_T        CONNECTED TO MODEL SVA_TM_T         PACKAGE SSM              ON UNIT   1030 AT TIME STEP     12, STRESS PERIOD      1

 CONCENTRATION WILL BE SAVED ON UNIT 1031 AT END OF TIME STEP   12, STRESS PERIOD    1


  MASS BUDGET FOR ENTIRE MODEL AT END OF TIME STEP   12, STRESS PERIOD   1
  ---------------------------------------------------------------------------------------------------

     CUMULATIVE MASS      M       RATES FOR THIS TIME STEP      M/T          PACKAGE NAME    
     ------------------                 ------------------------                     ----------------

           IN:                                      IN:
           ---                                      ---
     STORAGE-AQUEOUS =       8.9267E-12       STORAGE-AQUEOUS =       9.3376E-17     MST                              
                 WEL =           0.0000                   WEL =           0.0000     SSM_WEL1                         
                 WEL =       1.2000E-02                   WEL =       5.0000E-04     SSM_WEL2                         

            TOTAL IN =       1.2000E-02              TOTAL IN =       5.0000E-04

          OUT:                                     OUT:
          ----                                     ----
     STORAGE-AQUEOUS =       1.1883E-02       STORAGE-AQUEOUS =       4.7989E-04     MST                              
                 WEL =       1.1656E-04                   WEL =       2.0103E-05     SSM_WEL1                         
                 WEL =           0.0000                   WEL =           0.0000     SSM_WEL2                         

           TOTAL OUT =       1.2000E-02             TOTAL OUT =       5.0000E-04

            IN - OUT =       3.8152E-08              IN - OUT =       1.5754E-09

 PERCENT DISCREPANCY =           0.00     PERCENT DISCREPANCY =           0.00




         TIME SUMMARY AT END OF TIME STEP   12 IN STRESS PERIOD    1
                    SECONDS     MINUTES      HOURS       DAYS        YEARS
                    -----------------------------------------------------------
   TIME STEP LENGTH 1.72800E+05  2880.0      48.000      2.0000     5.47570E-03
 STRESS PERIOD TIME 2.07360E+06  34560.      576.00      24.000     6.57084E-02
         TOTAL TIME 2.07360E+06  34560.      576.00      24.000     6.57084E-02


end timestep


start timestep kper="1" kstp="13" mode="normal"

 UBDSV1 SAVING     FLOW-JA-FACE ON UNIT   1030 AT TIME STEP     13, STRESS PERIOD      1
 UBDSV1 SAVING  STORAGE-AQUEOUS ON UNIT   1030 AT TIME STEP     13, STRESS PERIOD      1
 UBDSV06 SAVING  SOURCE-SINK MIX IN MODEL SVA_TM_T         PACKAGE SVA_TM_T        CONNECTED TO MODEL SVA_TM_T         PACKAGE SSM              ON UNIT   1030 AT TIME STEP     13, STRESS PERIOD      1

 CONCENTRATION WILL BE SAVED ON UNIT 1031 AT END OF TIME STEP   13, STRESS PERIOD    1


  MASS BUDGET FOR ENTIRE MODEL AT END OF TIME STEP   13, STRESS PERIOD   1
  ---------------------------------------------------------------------------------------------------

     CUMULATIVE MASS      M       RATES FOR THIS TIME STEP      M/T          PACKAGE NAME    
     ------------------                 ------------------------                     ----------------

           IN:                                      IN:
           ---                                      ---
     STORAGE-AQUEOUS =       8.9269E-12       STORAGE-AQUEOUS =       1.3046E-16     MST                              
                 WEL =           0.0000                   WEL =           0.0000     SSM_WEL1                         
                 WEL =       1.3000E-02                   WEL =       5.0000E-04     SSM_WEL2                         

            TOTAL IN =       1.3000E-02              TOTAL IN =       5.0000E-04

          OUT:                                     OUT:
          ----                                     ----
     STORAGE-AQUEOUS =       1.2830E-02       STORAGE-AQUEOUS =       4.7345E-04     MST                              
                 WEL =       1.6965E-04                   WEL =       2.6545E-05     SSM_WEL1                         
                 WEL =           0.0000                   WEL =           0.0000     SSM_WEL2                         

           TOTAL OUT =       1.3000E-02             TOTAL OUT =       5.0000E-04

            IN - OUT =       4.0254E-08              IN - OUT =       1.0515E-09

 PERCENT DISCREPANCY =           0.00     PERCENT DISCREPANCY =           0.00




         TIME SUMMARY AT END OF TIME STEP   13 IN STRESS PERIOD    1
                    SECONDS     MINUTES      HOURS       DAYS        YEARS
                    -----------------------------------------------------------
   TIME STEP LENGTH 1.72800E+05  2880.0      48.000      2.0000     5.47570E-03
 STRESS PERIOD TIME 2.24640E+06  37440.      624.00      26.000     7.11841E-02
         TOTAL TIME 2.24640E+06  37440.      624.00      26.000     7.11841E-02


end timestep


start timestep kper="1" kstp="14" mode="normal"

 UBDSV1 SAVING     FLOW-JA-FACE ON UNIT   1030 AT TIME STEP     14, STRESS PERIOD      1
 UBDSV1 SAVING  STORAGE-AQUEOUS ON UNIT   1030 AT TIME STEP     14, STRESS PERIOD      1
 UBDSV06 SAVING  SOURCE-SINK MIX IN MODEL SVA_TM_T         PACKAGE SVA_TM_T        CONNECTED TO MODEL SVA_TM_T         PACKAGE SSM              ON UNIT   1030 AT TIME STEP     14, STRESS PERIOD      1

 CONCENTRATION WILL BE SAVED ON UNIT 1031 AT END OF TIME STEP   14, STRESS PERIOD    1


  MASS BUDGET FOR ENTIRE MODEL AT END OF TIME STEP   14, STRESS PERIOD   1
  ---------------------------------------------------------------------------------------------------

     CUMULATIVE MASS      M       RATES FOR THIS TIME STEP      M/T          PACKAGE NAME    
     ------------------                 ------------------------                     ----------------

           IN:                                      IN:
           ---                                      ---
     STORAGE-AQUEOUS =       8.9271E-12       STORAGE-AQUEOUS =       8.1449E-17     MST                              
                 WEL =           0.0000                   WEL =           0.0000     SSM_WEL1                         
                 WEL =       1.4000E-02                   WEL =       5.0000E-04     SSM_WEL2                         

            TOTAL IN =       1.4000E-02              TOTAL IN =       5.0000E-04

          OUT:                                     OUT:
          ----                                     ----
     STORAGE-AQUEOUS =       1.3763E-02       STORAGE-AQUEOUS =       4.6625E-04     MST                              
                 WEL =       2.3714E-04                   WEL =       3.3747E-05     SSM_WEL1                         
                 WEL =           0.0000                   WEL =           0.0000     SSM_WEL2                         

           TOTAL OUT =       1.4000E-02             TOTAL OUT =       5.0000E-04

            IN - OUT =       4.1905E-08              IN - OUT =       8.2526E-10

 PERCENT DISCREPANCY =           0.00     PERCENT DISCREPANCY =           0.00




         TIME SUMMARY AT END OF TIME STEP   14 IN STRESS PERIOD    1
                    SECONDS     MINUTES      HOURS       DAYS        YEARS
                    -----------------------------------------------------------
   TIME STEP LENGTH 1.72800E+05  2880.0      48.000      2.0000     5.47570E-03
 STRESS PERIOD TIME 2.41920E+06  40320.      672.00      28.000     7.66598E-02
         TOTAL TIME 2.41920E+06  40320.      672.00      28.000     7.66598E-02


end timestep


start timestep kper="1" kstp="15" mode="normal"

 UBDSV1 SAVING     FLOW-JA-FACE ON UNIT   1030 AT TIME STEP     15, STRESS PERIOD      1
 UBDSV1 SAVING  STORAGE-AQUEOUS ON UNIT   1030 AT TIME STEP     15, STRESS PERIOD      1
 UBDSV06 SAVING  SOURCE-SINK MIX IN MODEL SVA_TM_T         PACKAGE SVA_TM_T        CONNECTED TO MODEL SVA_TM_T         PACKAGE SSM              ON UNIT   1030 AT TIME STEP     15, STRESS PERIOD      1

 CONCENTRATION WILL BE SAVED ON UNIT 1031 AT END OF TIME STEP   15, STRESS PERIOD    1


  MASS BUDGET FOR ENTIRE MODEL AT END OF TIME STEP   15, STRESS PERIOD   1
  ---------------------------------------------------------------------------------------------------

     CUMULATIVE MASS      M       RATES FOR THIS TIME STEP      M/T          PACKAGE NAME    
     ------------------                 ------------------------                     ----------------

           IN:                                      IN:
           ---                                      ---
     STORAGE-AQUEOUS =       8.9272E-12       STORAGE-AQUEOUS =       6.3597E-17     MST                              
                 WEL =           0.0000                   WEL =           0.0000     SSM_WEL1                         
                 WEL =       1.5000E-02                   WEL =       5.0000E-04     SSM_WEL2                         

            TOTAL IN =       1.5000E-02              TOTAL IN =       5.0000E-04

          OUT:                                     OUT:
          ----                                     ----
     STORAGE-AQUEOUS =       1.4680E-02       STORAGE-AQUEOUS =       4.5843E-04     MST                              
                 WEL =       3.2029E-04                   WEL =       4.1573E-05     SSM_WEL1                         
                 WEL =           0.0000                   WEL =           0.0000     SSM_WEL2                         

           TOTAL OUT =       1.5000E-02             TOTAL OUT =       5.0000E-04

            IN - OUT =       4.2926E-08              IN - OUT =       5.1036E-10

 PERCENT DISCREPANCY =           0.00     PERCENT DISCREPANCY =           0.00




         TIME SUMMARY AT END OF TIME STEP   15 IN STRESS PERIOD    1
                    SECONDS     MINUTES      HOURS       DAYS        YEARS
                    -----------------------------------------------------------
   TIME STEP LENGTH 1.72800E+05  2880.0      48.000      2.0000     5.47570E-03
 STRESS PERIOD TIME 2.59200E+06  43200.      720.00      30.000     8.21355E-02
         TOTAL TIME 2.59200E+06  43200.      720.00      30.000     8.21355E-02


end timestep


start timestep kper="1" kstp="16" mode="normal"

 UBDSV1 SAVING     FLOW-JA-FACE ON UNIT   1030 AT TIME STEP     16, STRESS PERIOD      1
 UBDSV1 SAVING  STORAGE-AQUEOUS ON UNIT   1030 AT TIME STEP     16, STRESS PERIOD      1
 UBDSV06 SAVING  SOURCE-SINK MIX IN MODEL SVA_TM_T         PACKAGE SVA_TM_T        CONNECTED TO MODEL SVA_TM_T         PACKAGE SSM              ON UNIT   1030 AT TIME STEP     16, STRESS PERIOD      1

 CONCENTRATION WILL BE SAVED ON UNIT 1031 AT END OF TIME STEP   16, STRESS PERIOD    1


  MASS BUDGET FOR ENTIRE MODEL AT END OF TIME STEP   16, STRESS PERIOD   1
  ---------------------------------------------------------------------------------------------------

     CUMULATIVE MASS      M       RATES FOR THIS TIME STEP      M/T          PACKAGE NAME    
     ------------------                 ------------------------                     ----------------

           IN:                                      IN:
           ---                                      ---
     STORAGE-AQUEOUS =       8.9273E-12       STORAGE-AQUEOUS =       1.7197E-17     MST                              
                 WEL =           0.0000                   WEL =           0.0000     SSM_WEL1                         
                 WEL =       1.6000E-02                   WEL =       5.0000E-04     SSM_WEL2                         

            TOTAL IN =       1.6000E-02              TOTAL IN =       5.0000E-04

          OUT:                                     OUT:
          ----                                     ----
     STORAGE-AQUEOUS =       1.5580E-02       STORAGE-AQUEOUS =       4.5011E-04     MST                              
                 WEL =       4.2006E-04                   WEL =       4.9885E-05     SSM_WEL1                         
                 WEL =           0.0000                   WEL =           0.0000     SSM_WEL2                         

           TOTAL OUT =       1.6000E-02             TOTAL OUT =       5.0000E-04

            IN - OUT =       4.3855E-08              IN - OUT =       4.6442E-10

 PERCENT DISCREPANCY =           0.00     PERCENT DISCREPANCY =           0.00




         TIME SUMMARY AT END OF TIME STEP   16 IN STRESS PERIOD    1
                    SECONDS     MINUTES      HOURS       DAYS        YEARS
                    -----------------------------------------------------------
   TIME STEP LENGTH 1.72800E+05  2880.0      48.000      2.0000     5.47570E-03
 STRESS PERIOD TIME 2.76480E+06  46080.      768.00      32.000     8.76112E-02
         TOTAL TIME 2.76480E+06  46080.      768.00      32.000     8.76112E-02


end timestep


start timestep kper="1" kstp="17" mode="normal"

 UBDSV1 SAVING     FLOW-JA-FACE ON UNIT   1030 AT TIME STEP     17, STRESS PERIOD      1
 UBDSV1 SAVING  STORAGE-AQUEOUS ON UNIT   1030 AT TIME STEP     17, STRESS PERIOD      1
 UBDSV06 SAVING  SOURCE-SINK MIX IN MODEL SVA_TM_T         PACKAGE SVA_TM_T        CONNECTED TO MODEL SVA_TM_T         PACKAGE SSM              ON UNIT   1030 AT TIME STEP     17, STRESS PERIOD      1

 CONCENTRATION WILL BE SAVED ON UNIT 1031 AT END OF TIME STEP   17, STRESS PERIOD    1


  MASS BUDGET FOR ENTIRE MODEL AT END OF TIME STEP   17, STRESS PERIOD   1
  ---------------------------------------------------------------------------------------------------

     CUMULATIVE MASS      M       RATES FOR THIS TIME STEP      M/T          PACKAGE NAME    
     ------------------                 ------------------------                     ----------------

           IN:                                      IN:
           ---                                      ---
     STORAGE-AQUEOUS =       8.9273E-12       STORAGE-AQUEOUS =       6.8392E-18     MST                              
                 WEL =           0.0000                   WEL =           0.0000     SSM_WEL1                         
                 WEL =       1.7000E-02                   WEL =       5.0000E-04     SSM_WEL2                         

            TOTAL IN =       1.7000E-02              TOTAL IN =       5.0000E-04

          OUT:                                     OUT:
          ----                                     ----
     STORAGE-AQUEOUS =       1.6463E-02       STORAGE-AQUEOUS =       4.4145E-04     MST                              
                 WEL =       5.3716E-04                   WEL =       5.8552E-05     SSM_WEL1                         
                 WEL =           0.0000                   WEL =           0.0000     SSM_WEL2                         

           TOTAL OUT =       1.7000E-02             TOTAL OUT =       5.0000E-04

            IN - OUT =       4.5277E-08              IN - OUT =       7.1102E-10

 PERCENT DISCREPANCY =           0.00     PERCENT DISCREPANCY =           0.00




         TIME SUMMARY AT END OF TIME STEP   17 IN STRESS PERIOD    1
                    SECONDS     MINUTES      HOURS       DAYS        YEARS
                    -----------------------------------------------------------
   TIME STEP LENGTH 1.72800E+05  2880.0      48.000      2.0000     5.47570E-03
 STRESS PERIOD TIME 2.93760E+06  48960.      816.00      34.000     9.30869E-02
         TOTAL TIME 2.93760E+06  48960.      816.00      34.000     9.30869E-02


end timestep


start timestep kper="1" kstp="18" mode="normal"

 UBDSV1 SAVING     FLOW-JA-FACE ON UNIT   1030 AT TIME STEP     18, STRESS PERIOD      1
 UBDSV1 SAVING  STORAGE-AQUEOUS ON UNIT   1030 AT TIME STEP     18, STRESS PERIOD      1
 UBDSV06 SAVING  SOURCE-SINK MIX IN MODEL SVA_TM_T         PACKAGE SVA_TM_T        CONNECTED TO MODEL SVA_TM_T         PACKAGE SSM              ON UNIT   1030 AT TIME STEP     18, STRESS PERIOD      1

 CONCENTRATION WILL BE SAVED ON UNIT 1031 AT END OF TIME STEP   18, STRESS PERIOD    1


  MASS BUDGET FOR ENTIRE MODEL AT END OF TIME STEP   18, STRESS PERIOD   1
  ---------------------------------------------------------------------------------------------------

     CUMULATIVE MASS      M       RATES FOR THIS TIME STEP      M/T          PACKAGE NAME    
     ------------------                 ------------------------                     ----------------

           IN:                                      IN:
           ---                                      ---
     STORAGE-AQUEOUS =       8.9273E-12       STORAGE-AQUEOUS =       4.0824E-18     MST                              
                 WEL =           0.0000                   WEL =           0.0000     SSM_WEL1                         
                 WEL =       1.8000E-02                   WEL =       5.0000E-04     SSM_WEL2                         

            TOTAL IN =       1.8000E-02              TOTAL IN =       5.0000E-04

          OUT:                                     OUT:
          ----                                     ----
     STORAGE-AQUEOUS =       1.7328E-02       STORAGE-AQUEOUS =       4.3255E-04     MST                              
                 WEL =       6.7207E-04                   WEL =       6.7453E-05     SSM_WEL1                         
                 WEL =           0.0000                   WEL =           0.0000     SSM_WEL2                         

           TOTAL OUT =       1.8000E-02             TOTAL OUT =       5.0000E-04

            IN - OUT =       4.6584E-08              IN - OUT =       6.5345E-10

 PERCENT DISCREPANCY =           0.00     PERCENT DISCREPANCY =           0.00




         TIME SUMMARY AT END OF TIME STEP   18 IN STRESS PERIOD    1
                    SECONDS     MINUTES      HOURS       DAYS        YEARS
                    -----------------------------------------------------------
   TIME STEP LENGTH 1.72800E+05  2880.0      48.000      2.0000     5.47570E-03
 STRESS PERIOD TIME 3.11040E+06  51840.      864.00      36.000     9.85626E-02
         TOTAL TIME 3.11040E+06  51840.      864.00      36.000     9.85626E-02


end timestep


start timestep kper="1" kstp="19" mode="normal"

 UBDSV1 SAVING     FLOW-JA-FACE ON UNIT   1030 AT TIME STEP     19, STRESS PERIOD      1
 UBDSV1 SAVING  STORAGE-AQUEOUS ON UNIT   1030 AT TIME STEP     19, STRESS PERIOD      1
 UBDSV06 SAVING  SOURCE-SINK MIX IN MODEL SVA_TM_T         PACKAGE SVA_TM_T        CONNECTED TO MODEL SVA_TM_T         PACKAGE SSM              ON UNIT   1030 AT TIME STEP     19, STRESS PERIOD      1

 CONCENTRATION WILL BE SAVED ON UNIT 1031 AT END OF TIME STEP   19, STRESS PERIOD    1


  MASS BUDGET FOR ENTIRE MODEL AT END OF TIME STEP   19, STRESS PERIOD   1
  ---------------------------------------------------------------------------------------------------

     CUMULATIVE MASS      M       RATES FOR THIS TIME STEP      M/T          PACKAGE NAME    
     ------------------                 ------------------------                     ----------------

           IN:                                      IN:
           ---                                      ---
     STORAGE-AQUEOUS =       8.9273E-12       STORAGE-AQUEOUS =       1.8976E-18     MST                              
                 WEL =           0.0000                   WEL =           0.0000     SSM_WEL1                         
                 WEL =       1.9000E-02                   WEL =       5.0000E-04     SSM_WEL2                         

            TOTAL IN =       1.9000E-02              TOTAL IN =       5.0000E-04

          OUT:                                     OUT:
          ----                                     ----
     STORAGE-AQUEOUS =       1.8175E-02       STORAGE-AQUEOUS =       4.2352E-04     MST                              
                 WEL =       8.2502E-04                   WEL =       7.6480E-05     SSM_WEL1                         
                 WEL =           0.0000                   WEL =           0.0000     SSM_WEL2                         

           TOTAL OUT =       1.9000E-02             TOTAL OUT =       5.0000E-04

            IN - OUT =       4.7425E-08              IN - OUT =       4.2089E-10

 PERCENT DISCREPANCY =           0.00     PERCENT DISCREPANCY =           0.00




         TIME SUMMARY AT END OF TIME STEP   19 IN STRESS PERIOD    1
                    SECONDS     MINUTES      HOURS       DAYS        YEARS
                    -----------------------------------------------------------
   TIME STEP LENGTH 1.72800E+05  2880.0      48.000      2.0000     5.47570E-03
 STRESS PERIOD TIME 3.28320E+06  54720.      912.00      38.000     0.10404    
         TOTAL TIME 3.28320E+06  54720.      912.00      38.000     0.10404    


end timestep


start timestep kper="1" kstp="20" mode="normal"

 UBDSV1 SAVING     FLOW-JA-FACE ON UNIT   1030 AT TIME STEP     20, STRESS PERIOD      1
 UBDSV1 SAVING  STORAGE-AQUEOUS ON UNIT   1030 AT TIME STEP     20, STRESS PERIOD      1
 UBDSV06 SAVING  SOURCE-SINK MIX IN MODEL SVA_TM_T         PACKAGE SVA_TM_T        CONNECTED TO MODEL SVA_TM_T         PACKAGE SSM              ON UNIT   1030 AT TIME STEP     20, STRESS PERIOD      1

 CONCENTRATION WILL BE SAVED ON UNIT 1031 AT END OF TIME STEP   20, STRESS PERIOD    1


  MASS BUDGET FOR ENTIRE MODEL AT END OF TIME STEP   20, STRESS PERIOD   1
  ---------------------------------------------------------------------------------------------------

     CUMULATIVE MASS      M       RATES FOR THIS TIME STEP      M/T          PACKAGE NAME    
     ------------------                 ------------------------                     ----------------

           IN:                                      IN:
           ---                                      ---
     STORAGE-AQUEOUS =       8.9273E-12       STORAGE-AQUEOUS =       1.6960E-18     MST                              
                 WEL =           0.0000                   WEL =           0.0000     SSM_WEL1                         
                 WEL =       2.0000E-02                   WEL =       5.0000E-04     SSM_WEL2                         

            TOTAL IN =       2.0000E-02              TOTAL IN =       5.0000E-04

          OUT:                                     OUT:
          ----                                     ----
     STORAGE-AQUEOUS =       1.9004E-02       STORAGE-AQUEOUS =       4.1446E-04     MST                              
                 WEL =       9.9610E-04                   WEL =       8.5540E-05     SSM_WEL1                         
                 WEL =           0.0000                   WEL =           0.0000     SSM_WEL2                         

           TOTAL OUT =       2.0000E-02             TOTAL OUT =       5.0000E-04

            IN - OUT =       4.8666E-08              IN - OUT =       6.2049E-10

 PERCENT DISCREPANCY =           0.00     PERCENT DISCREPANCY =           0.00




         TIME SUMMARY AT END OF TIME STEP   20 IN STRESS PERIOD    1
                    SECONDS     MINUTES      HOURS       DAYS        YEARS
                    -----------------------------------------------------------
   TIME STEP LENGTH 1.72800E+05  2880.0      48.000      2.0000     5.47570E-03
 STRESS PERIOD TIME 3.45600E+06  57600.      960.00      40.000     0.10951    
         TOTAL TIME 3.45600E+06  57600.      960.00      40.000     0.10951    


end timestep


start timestep kper="1" kstp="21" mode="normal"

 UBDSV1 SAVING     FLOW-JA-FACE ON UNIT   1030 AT TIME STEP     21, STRESS PERIOD      1
 UBDSV1 SAVING  STORAGE-AQUEOUS ON UNIT   1030 AT TIME STEP     21, STRESS PERIOD      1
 UBDSV06 SAVING  SOURCE-SINK MIX IN MODEL SVA_TM_T         PACKAGE SVA_TM_T        CONNECTED TO MODEL SVA_TM_T         PACKAGE SSM              ON UNIT   1030 AT TIME STEP     21, STRESS PERIOD      1

 CONCENTRATION WILL BE SAVED ON UNIT 1031 AT END OF TIME STEP   21, STRESS PERIOD    1


  MASS BUDGET FOR ENTIRE MODEL AT END OF TIME STEP   21, STRESS PERIOD   1
  ---------------------------------------------------------------------------------------------------

     CUMULATIVE MASS      M       RATES FOR THIS TIME STEP      M/T          PACKAGE NAME    
     ------------------                 ------------------------                     ----------------

           IN:                                      IN:
           ---                                      ---
     STORAGE-AQUEOUS =       8.9273E-12       STORAGE-AQUEOUS =       1.4316E-18     MST                              
                 WEL =           0.0000                   WEL =           0.0000     SSM_WEL1                         
                 WEL =       2.1000E-02                   WEL =       5.0000E-04     SSM_WEL2                         

            TOTAL IN =       2.1000E-02              TOTAL IN =       5.0000E-04

          OUT:                                     OUT:
          ----                                     ----
     STORAGE-AQUEOUS =       1.9815E-02       STORAGE-AQUEOUS =       4.0550E-04     MST                              
                 WEL =       1.1851E-03                   WEL =       9.4499E-05     SSM_WEL1                         
                 WEL =           0.0000                   WEL =           0.0000     SSM_WEL2                         

           TOTAL OUT =       2.1000E-02             TOTAL OUT =       5.0000E-04

            IN - OUT =       4.8167E-08              IN - OUT =      -2.4942E-10

 PERCENT DISCREPANCY =           0.00     PERCENT DISCREPANCY =          -0.00




         TIME SUMMARY AT END OF TIME STEP   21 IN STRESS PERIOD    1
                    SECONDS     MINUTES      HOURS       DAYS        YEARS
                    -----------------------------------------------------------
   TIME STEP LENGTH 1.72800E+05  2880.0      48.000      2.0000     5.47570E-03
 STRESS PERIOD TIME 3.62880E+06  60480.      1008.0      42.000     0.11499    
         TOTAL TIME 3.62880E+06  60480.      1008.0      42.000     0.11499    


end timestep


start timestep kper="1" kstp="22" mode="normal"

 UBDSV1 SAVING     FLOW-JA-FACE ON UNIT   1030 AT TIME STEP     22, STRESS PERIOD      1
 UBDSV1 SAVING  STORAGE-AQUEOUS ON UNIT   1030 AT TIME STEP     22, STRESS PERIOD      1
 UBDSV06 SAVING  SOURCE-SINK MIX IN MODEL SVA_TM_T         PACKAGE SVA_TM_T        CONNECTED TO MODEL SVA_TM_T         PACKAGE SSM              ON UNIT   1030 AT TIME STEP     22, STRESS PERIOD      1

 CONCENTRATION WILL BE SAVED ON UNIT 1031 AT END OF TIME STEP   22, STRESS PERIOD    1


  MASS BUDGET FOR ENTIRE MODEL AT END OF TIME STEP   22, STRESS PERIOD   1
  ---------------------------------------------------------------------------------------------------

     CUMULATIVE MASS      M       RATES FOR THIS TIME STEP      M/T          PACKAGE NAME    
     ------------------                 ------------------------                     ----------------

           IN:                                      IN:
           ---                                      ---
     STORAGE-AQUEOUS =       8.9273E-12       STORAGE-AQUEOUS =       1.0204E-18     MST                              
                 WEL =           0.0000                   WEL =           0.0000     SSM_WEL1                         
                 WEL =       2.2000E-02                   WEL =       5.0000E-04     SSM_WEL2                         

            TOTAL IN =       2.2000E-02              TOTAL IN =       5.0000E-04

          OUT:                                     OUT:
          ----                                     ----
     STORAGE-AQUEOUS =       2.0608E-02       STORAGE-AQUEOUS =       3.9671E-04     MST                              
                 WEL =       1.3917E-03                   WEL =       1.0329E-04     SSM_WEL1                         
                 WEL =           0.0000                   WEL =           0.0000     SSM_WEL2                         

           TOTAL OUT =       2.2000E-02             TOTAL OUT =       5.0000E-04

            IN - OUT =       4.7279E-08              IN - OUT =      -4.4442E-10

 PERCENT DISCREPANCY =           0.00     PERCENT DISCREPANCY =          -0.00




         TIME SUMMARY AT END OF TIME STEP   22 IN STRESS PERIOD    1
                    SECONDS     MINUTES      HOURS       DAYS        YEARS
                    -----------------------------------------------------------
   TIME STEP LENGTH 1.72800E+05  2880.0      48.000      2.0000     5.47570E-03
 STRESS PERIOD TIME 3.80160E+06  63360.      1056.0      44.000     0.12047    
         TOTAL TIME 3.80160E+06  63360.      1056.0      44.000     0.12047    


end timestep


start timestep kper="1" kstp="23" mode="normal"

 UBDSV1 SAVING     FLOW-JA-FACE ON UNIT   1030 AT TIME STEP     23, STRESS PERIOD      1
 UBDSV1 SAVING  STORAGE-AQUEOUS ON UNIT   1030 AT TIME STEP     23, STRESS PERIOD      1
 UBDSV06 SAVING  SOURCE-SINK MIX IN MODEL SVA_TM_T         PACKAGE SVA_TM_T        CONNECTED TO MODEL SVA_TM_T         PACKAGE SSM              ON UNIT   1030 AT TIME STEP     23, STRESS PERIOD      1

 CONCENTRATION WILL BE SAVED ON UNIT 1031 AT END OF TIME STEP   23, STRESS PERIOD    1


  MASS BUDGET FOR ENTIRE MODEL AT END OF TIME STEP   23, STRESS PERIOD   1
  ---------------------------------------------------------------------------------------------------

     CUMULATIVE MASS      M       RATES FOR THIS TIME STEP      M/T          PACKAGE NAME    
     ------------------                 ------------------------                     ----------------

           IN:                                      IN:
           ---                                      ---
     STORAGE-AQUEOUS =       8.9273E-12       STORAGE-AQUEOUS =       3.8643E-19     MST                              
                 WEL =           0.0000                   WEL =           0.0000     SSM_WEL1                         
                 WEL =       2.3000E-02                   WEL =       5.0000E-04     SSM_WEL2                         

            TOTAL IN =       2.3000E-02              TOTAL IN =       5.0000E-04

          OUT:                                     OUT:
          ----                                     ----
     STORAGE-AQUEOUS =       2.1384E-02       STORAGE-AQUEOUS =       3.8810E-04     MST                              
                 WEL =       1.6155E-03                   WEL =       1.1190E-04     SSM_WEL1                         
                 WEL =           0.0000                   WEL =           0.0000     SSM_WEL2                         

           TOTAL OUT =       2.3000E-02             TOTAL OUT =       5.0000E-04

            IN - OUT =       4.2001E-08              IN - OUT =      -2.6389E-09

 PERCENT DISCREPANCY =           0.00     PERCENT DISCREPANCY =          -0.00




         TIME SUMMARY AT END OF TIME STEP   23 IN STRESS PERIOD    1
                    SECONDS     MINUTES      HOURS       DAYS        YEARS
                    -----------------------------------------------------------
   TIME STEP LENGTH 1.72800E+05  2880.0      48.000      2.0000     5.47570E-03
 STRESS PERIOD TIME 3.97440E+06  66240.      1104.0      46.000     0.12594    
         TOTAL TIME 3.97440E+06  66240.      1104.0      46.000     0.12594    


end timestep


start timestep kper="1" kstp="24" mode="normal"

 UBDSV1 SAVING     FLOW-JA-FACE ON UNIT   1030 AT TIME STEP     24, STRESS PERIOD      1
 UBDSV1 SAVING  STORAGE-AQUEOUS ON UNIT   1030 AT TIME STEP     24, STRESS PERIOD      1
 UBDSV06 SAVING  SOURCE-SINK MIX IN MODEL SVA_TM_T         PACKAGE SVA_TM_T        CONNECTED TO MODEL SVA_TM_T         PACKAGE SSM              ON UNIT   1030 AT TIME STEP     24, STRESS PERIOD      1

 CONCENTRATION WILL BE SAVED ON UNIT 1031 AT END OF TIME STEP   24, STRESS PERIOD    1


  MASS BUDGET FOR ENTIRE MODEL AT END OF TIME STEP   24, STRESS PERIOD   1
  ---------------------------------------------------------------------------------------------------

     CUMULATIVE MASS      M       RATES FOR THIS TIME STEP      M/T          PACKAGE NAME    
     ------------------                 ------------------------                     ----------------

           IN:                                      IN:
           ---                                      ---
     STORAGE-AQUEOUS =       8.9273E-12       STORAGE-AQUEOUS =       7.9664E-20     MST                              
                 WEL =           0.0000                   WEL =           0.0000     SSM_WEL1                         
                 WEL =       2.4000E-02                   WEL =       5.0000E-04     SSM_WEL2                         

            TOTAL IN =       2.4000E-02              TOTAL IN =       5.0000E-04

          OUT:                                     OUT:
          ----                                     ----
     STORAGE-AQUEOUS =       2.2144E-02       STORAGE-AQUEOUS =       3.7968E-04     MST                              
                 WEL =       1.8561E-03                   WEL =       1.2032E-04     SSM_WEL1                         
                 WEL =           0.0000                   WEL =           0.0000     SSM_WEL2                         

           TOTAL OUT =       2.4000E-02             TOTAL OUT =       5.0001E-04

            IN - OUT =       2.5273E-08              IN - OUT =      -8.3640E-09

 PERCENT DISCREPANCY =           0.00     PERCENT DISCREPANCY =          -0.00




         TIME SUMMARY AT END OF TIME STEP   24 IN STRESS PERIOD    1
                    SECONDS     MINUTES      HOURS       DAYS        YEARS
                    -----------------------------------------------------------
   TIME STEP LENGTH 1.72800E+05  2880.0      48.000      2.0000     5.47570E-03
 STRESS PERIOD TIME 4.14720E+06  69120.      1152.0      48.000     0.13142    
         TOTAL TIME 4.14720E+06  69120.      1152.0      48.000     0.13142    


end timestep


start timestep kper="1" kstp="25" mode="normal"

 UBDSV1 SAVING     FLOW-JA-FACE ON UNIT   1030 AT TIME STEP     25, STRESS PERIOD      1
 UBDSV1 SAVING  STORAGE-AQUEOUS ON UNIT   1030 AT TIME STEP     25, STRESS PERIOD      1
 UBDSV06 SAVING  SOURCE-SINK MIX IN MODEL SVA_TM_T         PACKAGE SVA_TM_T        CONNECTED TO MODEL SVA_TM_T         PACKAGE SSM              ON UNIT   1030 AT TIME STEP     25, STRESS PERIOD      1

 CONCENTRATION WILL BE SAVED ON UNIT 1031 AT END OF TIME STEP   25, STRESS PERIOD    1


  MASS BUDGET FOR ENTIRE MODEL AT END OF TIME STEP   25, STRESS PERIOD   1
  ---------------------------------------------------------------------------------------------------

     CUMULATIVE MASS      M       RATES FOR THIS TIME STEP      M/T          PACKAGE NAME    
     ------------------                 ------------------------                     ----------------

           IN:                                      IN:
           ---                                      ---
     STORAGE-AQUEOUS =       8.9273E-12       STORAGE-AQUEOUS =       1.0694E-19     MST                              
                 WEL =           0.0000                   WEL =           0.0000     SSM_WEL1                         
                 WEL =       2.5000E-02                   WEL =       5.0000E-04     SSM_WEL2                         

            TOTAL IN =       2.5000E-02              TOTAL IN =       5.0000E-04

          OUT:                                     OUT:
          ----                                     ----
     STORAGE-AQUEOUS =       2.2887E-02       STORAGE-AQUEOUS =       3.7149E-04     MST                              
                 WEL =       2.1132E-03                   WEL =       1.2851E-04     SSM_WEL1                         
                 WEL =           0.0000                   WEL =           0.0000     SSM_WEL2                         

           TOTAL OUT =       2.5000E-02             TOTAL OUT =       5.0000E-04

            IN - OUT =       1.9317E-08              IN - OUT =      -2.9778E-09

 PERCENT DISCREPANCY =           0.00     PERCENT DISCREPANCY =          -0.00




         TIME SUMMARY AT END OF TIME STEP   25 IN STRESS PERIOD    1
                    SECONDS     MINUTES      HOURS       DAYS        YEARS
                    -----------------------------------------------------------
   TIME STEP LENGTH 1.72800E+05  2880.0      48.000      2.0000     5.47570E-03
 STRESS PERIOD TIME 4.32000E+06  72000.      1200.0      50.000     0.13689    
         TOTAL TIME 4.32000E+06  72000.      1200.0      50.000     0.13689    


end timestep


start timestep kper="1" kstp="26" mode="normal"

 UBDSV1 SAVING     FLOW-JA-FACE ON UNIT   1030 AT TIME STEP     26, STRESS PERIOD      1
 UBDSV1 SAVING  STORAGE-AQUEOUS ON UNIT   1030 AT TIME STEP     26, STRESS PERIOD      1
 UBDSV06 SAVING  SOURCE-SINK MIX IN MODEL SVA_TM_T         PACKAGE SVA_TM_T        CONNECTED TO MODEL SVA_TM_T         PACKAGE SSM              ON UNIT   1030 AT TIME STEP     26, STRESS PERIOD      1

 CONCENTRATION WILL BE SAVED ON UNIT 1031 AT END OF TIME STEP   26, STRESS PERIOD    1


  MASS BUDGET FOR ENTIRE MODEL AT END OF TIME STEP   26, STRESS PERIOD   1
  ---------------------------------------------------------------------------------------------------

     CUMULATIVE MASS      M       RATES FOR THIS TIME STEP      M/T          PACKAGE NAME    
     ------------------                 ------------------------                     ----------------

           IN:                                      IN:
           ---                                      ---
     STORAGE-AQUEOUS =       8.9273E-12       STORAGE-AQUEOUS =       7.6474E-20     MST                              
                 WEL =           0.0000                   WEL =           0.0000     SSM_WEL1                         
                 WEL =       2.6000E-02                   WEL =       5.0000E-04     SSM_WEL2                         

            TOTAL IN =       2.6000E-02              TOTAL IN =       5.0000E-04

          OUT:                                     OUT:
          ----                                     ----
     STORAGE-AQUEOUS =       2.3614E-02       STORAGE-AQUEOUS =       3.6357E-04     MST                              
                 WEL =       2.3860E-03                   WEL =       1.3644E-04     SSM_WEL1                         
                 WEL =           0.0000                   WEL =           0.0000     SSM_WEL2                         

           TOTAL OUT =       2.6000E-02             TOTAL OUT =       5.0000E-04

            IN - OUT =       1.4377E-08              IN - OUT =      -2.4703E-09

 PERCENT DISCREPANCY =           0.00     PERCENT DISCREPANCY =          -0.00




         TIME SUMMARY AT END OF TIME STEP   26 IN STRESS PERIOD    1
                    SECONDS     MINUTES      HOURS       DAYS        YEARS
                    -----------------------------------------------------------
   TIME STEP LENGTH 1.72800E+05  2880.0      48.000      2.0000     5.47570E-03
 STRESS PERIOD TIME 4.49280E+06  74880.      1248.0      52.000     0.14237    
         TOTAL TIME 4.49280E+06  74880.      1248.0      52.000     0.14237    


end timestep


start timestep kper="1" kstp="27" mode="normal"

 UBDSV1 SAVING     FLOW-JA-FACE ON UNIT   1030 AT TIME STEP     27, STRESS PERIOD      1
 UBDSV1 SAVING  STORAGE-AQUEOUS ON UNIT   1030 AT TIME STEP     27, STRESS PERIOD      1
 UBDSV06 SAVING  SOURCE-SINK MIX IN MODEL SVA_TM_T         PACKAGE SVA_TM_T        CONNECTED TO MODEL SVA_TM_T         PACKAGE SSM              ON UNIT   1030 AT TIME STEP     27, STRESS PERIOD      1

 CONCENTRATION WILL BE SAVED ON UNIT 1031 AT END OF TIME STEP   27, STRESS PERIOD    1


  MASS BUDGET FOR ENTIRE MODEL AT END OF TIME STEP   27, STRESS PERIOD   1
  ---------------------------------------------------------------------------------------------------

     CUMULATIVE MASS      M       RATES FOR THIS TIME STEP      M/T          PACKAGE NAME    
     ------------------                 ------------------------                     ----------------

           IN:                                      IN:
           ---                                      ---
     STORAGE-AQUEOUS =       8.9273E-12       STORAGE-AQUEOUS =       7.7046E-20     MST                              
                 WEL =           0.0000                   WEL =           0.0000     SSM_WEL1                         
                 WEL =       2.7000E-02                   WEL =       5.0000E-04     SSM_WEL2                         

            TOTAL IN =       2.7000E-02              TOTAL IN =       5.0000E-04

          OUT:                                     OUT:
          ----                                     ----
     STORAGE-AQUEOUS =       2.4326E-02       STORAGE-AQUEOUS =       3.5593E-04     MST                              
                 WEL =       2.6742E-03                   WEL =       1.4407E-04     SSM_WEL1                         
                 WEL =           0.0000                   WEL =           0.0000     SSM_WEL2                         

           TOTAL OUT =       2.7000E-02             TOTAL OUT =       5.0000E-04

            IN - OUT =       1.1263E-08              IN - OUT =      -1.5566E-09

 PERCENT DISCREPANCY =           0.00     PERCENT DISCREPANCY =          -0.00




         TIME SUMMARY AT END OF TIME STEP   27 IN STRESS PERIOD    1
                    SECONDS     MINUTES      HOURS       DAYS        YEARS
                    -----------------------------------------------------------
   TIME STEP LENGTH 1.72800E+05  2880.0      48.000      2.0000     5.47570E-03
 STRESS PERIOD TIME 4.66560E+06  77760.      1296.0      54.000     0.14784    
[...]
         0.999968         1.00002         1.00004         1.00006         1.00008         1.00011         1.00013         1.00016         1.00015         1.00005    
         0.999552        0.996682        0.980550        0.906200        0.680685        0.318766        6.993372E-02    5.093594E-03    6.304324E-04    4.483217E-05
  30     1.058138E-02    0.111400        0.332816        0.525822        0.637083        0.576635        0.500707        0.404169        0.306685        0.219435    
         0.152976        0.104725        8.312399E-02    8.944921E-02    0.120322        0.201053        0.400723        0.687395        0.837759        0.902030    
         0.922091        0.945445        0.989154        0.995840        0.998794        0.999605        0.999833        0.999904        0.999919        0.999956    
         0.999987         1.00002         1.00004         1.00006         1.00008         1.00011         1.00013         1.00017         1.00017         1.00010    
         0.999506        0.996160        0.979415        0.909972        0.703370        0.362750        9.577466E-02    8.876922E-03    1.369000E-03    1.179668E-04
  31     2.996519E-04    7.776010E-03    5.633796E-02    0.184585        0.249879        0.202493        0.155516        0.106334        6.884761E-02    4.261427E-02
         2.652287E-02    1.616060E-02    1.345014E-02    1.747517E-02    3.232816E-02    8.252237E-02    0.414768        0.737780        0.855411        0.917967    
         0.958807        0.987785        0.998176        0.999591        0.999891        0.999970        0.999974        0.999976        0.999979        0.999985    
         0.999999         1.00002         1.00004         1.00006         1.00008         1.00011         1.00014         1.00019         1.00018         1.00006    
         0.999207        0.994686        0.974192        0.900233        0.708193        0.388449        0.117617        1.344980E-02    2.344455E-03    2.271347E-04
  32     9.707924E-06    3.295231E-04    4.159651E-03    2.078466E-02    3.635479E-02    2.816305E-02    1.972953E-02    1.185464E-02    6.878875E-03    3.854525E-03
         2.214912E-03    1.172284E-03    9.930270E-04    1.725759E-03    7.499242E-03    6.177572E-02    0.508081        0.853113        0.925098        0.965747    
         0.988243        0.997707        0.999724        0.999963        0.999993        0.999999        0.999999        0.999999         1.00000         1.00000    
          1.00001         1.00003         1.00005         1.00006         1.00008         1.00012         1.00017         1.00021         1.00018        0.999915    
         0.998487        0.991940        0.966178        0.884853        0.695567        0.397239        0.113529        2.790803E-02    4.835162E-03    4.615295E-04
  33     3.390552E-07    1.039333E-05    1.518377E-04    9.929666E-04    2.153759E-03    1.718053E-03    1.156630E-03    6.472824E-04    3.515925E-04    1.801842E-04
         8.743218E-05    7.099698E-05    3.589449E-04    2.863303E-03    2.161702E-02    0.125155        0.638007        0.958751        0.982241        0.992153    
         0.997358        0.999457        0.999933        0.999995         1.00000         1.00000         1.00000         1.00000         1.00000         1.00001    
          1.00002         1.00003         1.00006         1.00008         1.00010         1.00019         1.00023         1.00023         1.00010        0.999464    
         0.996834        0.986844        0.953463        0.861807        0.669912        0.399406        0.114272        3.324119E-02    6.413421E-03    6.610663E-04
  34     1.047034E-08    2.659093E-07    3.905922E-06    2.912404E-05    7.249466E-05    6.136687E-05    4.067669E-05    2.155520E-05    1.078592E-05    4.537472E-06
         3.719702E-06    2.740248E-05    2.968992E-04    3.067975E-03    3.036757E-02    0.203014        0.777967        0.980590        0.996132        0.998784    
         0.999394        0.999814        0.999968        0.999996         1.00000         1.00000         1.00000         1.00000         1.00000         1.00001    
          1.00002         1.00004         1.00007         1.00009         1.00013         1.00017         1.00021         1.00016        0.999857        0.998603    
         0.994038        0.979004        0.935527        0.830614        0.630990        0.329563        0.116001        3.482744E-02    6.810586E-03    6.946111E-04
  35     2.542719E-10    5.377631E-09    7.754420E-08    6.304290E-07    1.732778E-06    1.548850E-06    9.990812E-07    4.863007E-07    2.019068E-07    1.175729E-07
         1.004607E-06    1.409420E-05    2.006106E-04    2.892418E-03    3.030873E-02    0.271140        0.804517        0.955626        0.993904        0.998939    
         0.999724        0.999906        0.999974        0.999997         1.00000         1.00000         1.00000         1.00000         1.00001         1.00002    
          1.00004         1.00006         1.00008         1.00011         1.00015         1.00019         1.00018         1.00006        0.999483        0.997312    
         0.990079        0.968610        0.913158        0.793486        0.593182        0.288031        0.110254        3.268655E-02    6.225043E-03    6.158275E-04
  36     4.596440E-12    8.553080E-11    1.230980E-09    1.077173E-08    3.190907E-08    2.940819E-08    1.778085E-08    7.327885E-09    3.211371E-09    2.557147E-08
         4.883021E-07    9.082333E-06    1.697117E-04    2.802192E-03    4.376431E-02    0.349235        0.786022        0.936972        0.990915        0.998464    
         0.999722        0.999910        0.999978        0.999999         1.00000         1.00000         1.00000         1.00001         1.00002         1.00003    
          1.00005         1.00008         1.00011         1.00014         1.00018         1.00020         1.00016        0.999924        0.998981        0.995650    
         0.985222        0.956480        0.888149        0.750081        0.506281        0.255429        9.888580E-02    2.795529E-02    4.971450E-03    4.609594E-04
  37     6.047571E-14    1.070899E-12    1.581085E-11    1.474967E-10    4.576786E-10    4.168737E-10    2.206121E-10    8.003811E-11    4.502887E-10    1.081386E-08
         2.457318E-07    5.492944E-06    1.340260E-04    3.073483E-03    6.480827E-02    0.392001        0.746643        0.915896        0.986648        0.997488    
         0.999551        0.999896        0.999980         1.00000         1.00001         1.00001         1.00001         1.00002         1.00003         1.00005    
          1.00008         1.00011         1.00014         1.00018         1.00021         1.00020         1.00011        0.999719        0.998307        0.993654    
         0.979895        0.944018        0.862943        0.717574        0.447960        0.224682        8.441037E-02    2.212752E-02    3.560192E-03    3.017029E-04
  38     5.747673E-16    1.050653E-14    1.628018E-13    1.586231E-12    4.929003E-12    4.137088E-12    1.804066E-12    6.413592E-12    1.824791E-10    5.082105E-09
         1.331357E-07    3.647564E-06    1.209092E-04    4.016316E-03    9.212088E-02    0.398756        0.708284        0.896014        0.981850        0.996181    
         0.999225        0.999855        0.999986         1.00001         1.00002         1.00002         1.00003         1.00004         1.00006         1.00009    
          1.00013         1.00017         1.00022         1.00025         1.00024         1.00017        0.999940        0.999203        0.996955        0.990413    
         0.972765        0.929965        0.841133        0.649418        0.403436        0.196126        6.953028E-02    1.651439E-02    2.341760E-03    1.775600E-04
  39     9.972228E-18    8.273546E-17    1.297616E-15    1.262446E-14    3.652172E-14    2.560030E-14    7.251666E-14    2.033477E-12    6.974284E-11    2.178637E-09
         6.778101E-08    2.427129E-06    1.209990E-04    6.369831E-03    0.105280        0.356981        0.662902        0.878455        0.977261        0.995000    
         0.998888        0.999837         1.00001         1.00004         1.00004         1.00005         1.00005         1.00007         1.00011         1.00015    
          1.00021         1.00027         1.00029         1.00026         1.00015        0.999863        0.999143        0.997398        0.993156        0.982884    
         0.958880        0.906423        0.784686        0.591448        0.359135        0.166986        5.477086E-02    1.149642E-02    1.391895E-03    9.256241E-05
  40     4.213978E-19    2.818054E-18    1.238533E-17    6.996103E-17    1.652859E-16    6.350943E-16    1.177400E-14    5.058197E-13    2.025573E-11    7.876703E-10
         3.243855E-08    1.755273E-06    1.407520E-04    9.960117E-03    8.901799E-02    0.299304        0.599264        0.864490        0.972700        0.994251    
         0.998845        0.999878         1.00006         1.00009         1.00009         1.00007         1.00011         1.00014         1.00017         1.00024    
          1.00028         1.00026         1.00017        0.999913        0.999328        0.998118        0.995732        0.991106        0.982249        0.964524    
         0.927383        0.855463        0.722588        0.529229        0.311789        0.137362        4.078044E-02    7.271459E-03    7.125147E-04    4.394524E-05
  41     1.111718E-20    8.143293E-20    4.746083E-19    1.734378E-18    3.480095E-18    2.499034E-17    1.103922E-15    5.963871E-14    3.215261E-12    1.805535E-10
         1.160269E-08    1.168095E-06    1.812409E-04    7.628359E-03    5.998665E-02    0.224524        0.507859        0.857731        0.966318        0.993370    
         0.998981        0.999999         1.00014         1.00017         1.00013        0.999829         1.00011         1.00011         1.00014         1.00017    
          1.00006        0.999746        0.999038        0.997619        0.995190        0.991007        0.983984        0.972490        0.957535        0.927688    
         0.874656        0.785966        0.646587        0.461558        0.264496        0.110045        2.869464E-02    4.008482E-03    3.349238E-04    1.977409E-05
  42     2.077194E-22    1.709722E-21    1.027195E-20    2.999936E-20    5.103933E-20    6.533400E-19    3.660667E-17    2.498248E-15    1.980867E-13    1.859119E-11
         2.204124E-09    4.752160E-07    1.270778E-04    3.494205E-03    3.127972E-02    0.145647        0.426276        0.812098        0.952998        0.990670    
         0.998364        0.999710        0.999991        0.999939        0.999594        0.996710        0.999308        0.999152        0.999159        0.998988    
         0.998407        0.996458        0.993188        0.987683        0.982188        0.971893        0.956293        0.933449        0.902506        0.856135    
         0.787634        0.689987        0.556777        0.393355        0.223559        8.892605E-02    1.926493E-02    2.031982E-03    1.505642E-04    8.376684E-06
  43     2.805997E-24    2.330063E-23    1.249789E-22    3.333616E-22    5.295255E-22    9.275006E-21    5.554163E-19    3.933147E-17    3.965589E-15    6.712808E-13
         1.679758E-10    7.318523E-08    3.051435E-05    8.921167E-04    1.015008E-02    6.382729E-02    0.367981        0.734165        0.923245        0.980381    
         0.992839        0.996016        0.996991        0.995615        0.989850        0.933014        0.984299        0.988493        0.990019        0.990271    
         0.988236        0.983128        0.974198        0.960157        0.941768        0.917117        0.885079        0.843436        0.794963        0.715674    
         0.635158        0.548361        0.454436        0.328832        0.193753        7.701608E-02    1.245033E-02    1.019361E-03    6.530867E-05    3.290999E-06
  44     2.724358E-26    2.026316E-25    9.469724E-25    2.512473E-24    4.234616E-24    9.351494E-23    6.142777E-21    5.582115E-19    9.839069E-17    3.004735E-14
         1.564250E-11    1.259321E-08    2.900602E-06    9.882556E-05    1.344283E-03    3.303506E-02    0.230154        0.577267        0.822893        0.919413    
         0.956978        0.973280        0.965810        0.956405        0.923344        0.783440        0.874347        0.917546        0.936648        0.945202    
         0.944178        0.931983        0.910698        0.879873        0.840566        0.792809        0.741850        0.654398        0.578822        0.508327    
         0.440642        0.378033        0.320397        0.263338        0.171743        7.570783E-02    7.569026E-03    5.054583E-04    2.705744E-05    1.176791E-06
  45     1.907714E-28    1.188872E-27    5.086678E-27    1.429204E-26    2.814248E-26    7.713451E-25    5.498022E-23    5.655736E-21    1.186435E-18    4.735225E-16
         3.749913E-13    3.974348E-10    9.944816E-08    3.357301E-06    1.865432E-04    5.929513E-03    5.751444E-02    0.218239        0.444473        0.633501    
         0.736992        0.803238        0.763594        0.740301        0.668609        0.486992        0.588880        0.691952        0.758324        0.795447    
         0.809285        0.792377        0.755824        0.705930        0.645026        0.582502        0.481970        0.407474        0.343273        0.287096    
         0.240136        0.205152        0.182358        0.165795        0.145907        7.277437E-02    5.843052E-03    3.751371E-04    1.644909E-05    4.967746E-07
  46     9.646220E-31    5.046229E-30    2.122268E-29    6.605793E-29    1.616623E-28    5.514436E-27    4.238131E-25    4.719234E-23    1.073317E-20    4.594982E-18
         3.783151E-15    3.920719E-12    2.026113E-09    8.438894E-08    6.512187E-06    1.812036E-04    2.231448E-03    1.781953E-02    8.036508E-02    0.177647    
         0.284455        0.286043        0.274988        0.275605        0.241065        0.157126        0.229077        0.336449        0.432484        0.500879    
         0.537915        0.533178        0.492722        0.445121        0.348504        0.281113        0.229193        0.184355        0.144868        0.112068    
         8.772823E-02    7.279462E-02    6.914281E-02    7.373349E-02    7.283030E-02    4.105357E-02    3.414119E-03    4.475328E-04    2.396595E-05    6.541028E-07
  47     3.468501E-33    1.620461E-32    7.176164E-32    2.562300E-31    8.129591E-31    3.458813E-29    2.905788E-27    3.949252E-25    1.201160E-22    5.551395E-20
         3.401521E-17    2.653068E-14    1.470972E-11    9.323617E-10    5.271870E-08    9.900055E-07    1.514537E-05    2.932243E-04    2.990318E-03    1.308043E-02
         1.952614E-02    2.175756E-02    2.450620E-02    2.838672E-02    2.746313E-02    1.944598E-02    3.926400E-02    8.146466E-02    0.136095        0.188431    
         0.224372        0.240552        0.188349        0.155125        0.129763        0.102855        7.763057E-02    5.570660E-02    3.810175E-02    2.537737E-02
         1.725510E-02    1.281389E-02    1.069125E-02    6.977282E-03    5.460227E-03    3.776833E-03    2.057899E-04    3.010218E-05    5.179212E-06    2.522283E-07
  48     8.562074E-36    3.962231E-35    1.968126E-34    8.302580E-34    3.544418E-33    1.884359E-31    1.869354E-29    3.780760E-27    1.339079E-24    5.270794E-22
         2.254955E-19    1.075039E-16    6.166144E-14    3.719281E-12    1.092810E-10    1.242803E-09    2.702865E-08    9.676629E-07    2.344811E-05    1.234170E-04
         2.675604E-04    3.614427E-04    5.179912E-04    7.482547E-04    8.933377E-04    8.761662E-04    2.648114E-03    8.205363E-03    1.869928E-02    2.763842E-02
         3.875179E-02    4.403283E-02    4.825342E-02    4.375455E-02    3.584546E-02    2.588012E-02    1.666646E-02    9.711896E-03    5.246140E-03    2.761685E-03
         1.519995E-03    8.984061E-04    5.010677E-04    2.697785E-04    2.781408E-04    4.348770E-04    1.897699E-05    4.946228E-07    6.589298E-08    1.300863E-08
  49     1.346423E-38    6.999195E-38    4.139068E-37    2.114210E-36    1.269434E-35    8.417397E-34    9.892164E-32    1.978792E-29    4.858713E-27    1.710603E-24
         5.905102E-22    2.186973E-19    1.140225E-16    5.279450E-15    6.134525E-14    4.203068E-13    1.298264E-11    8.172111E-10    3.584152E-08    3.695565E-07
         1.081367E-06    1.813759E-06    3.442120E-06    6.240392E-06    9.834495E-06    1.429141E-05    6.139171E-05    2.740687E-04    9.589287E-04    4.936120E-03
         8.535078E-03    9.989147E-03    1.048638E-02    9.087777E-03    6.554273E-03    3.909192E-03    1.964311E-03    8.600700E-04    3.507744E-04    1.467419E-04
         6.836607E-05    3.287969E-05    1.588150E-05    7.644986E-06    8.890897E-06    2.203378E-05    3.919463E-06    3.158640E-08    2.520240E-10    6.906689E-11
  50     1.145086E-41    7.591357E-41    5.636754E-40    3.536758E-39    3.132237E-38    2.244554E-36    2.073272E-34    2.386398E-32    5.788108E-30    1.774943E-27
         5.632984E-25    1.952914E-22    9.399238E-20    3.233465E-18    1.296785E-17    4.588341E-17    1.987968E-15    2.665540E-13    2.654750E-11    4.386295E-10
         1.701350E-09    3.715764E-09    1.026912E-08    1.333720E-07    2.932499E-07    6.315489E-07    3.770179E-06    2.186250E-05    1.008737E-04    5.208223E-04
         1.072812E-03    1.320686E-03    1.299058E-03    1.029957E-03    6.278414E-04    3.029030E-04    1.220037E-04    4.541434E-05    1.616149E-05    5.819660E-06
         2.363537E-06    1.009417E-06    4.299673E-07    1.782298E-07    1.959720E-07    5.706064E-07    2.153817E-07    8.661988E-09    1.720392E-11    7.409680E-14

 CONCENTRATION WILL BE SAVED ON UNIT 1031 AT END OF TIME STEP  200, STRESS PERIOD    2


  MASS BUDGET FOR ENTIRE MODEL AT END OF TIME STEP  200, STRESS PERIOD   2
  ---------------------------------------------------------------------------------------------------

     CUMULATIVE MASS      M       RATES FOR THIS TIME STEP      M/T          PACKAGE NAME    
     ------------------                 ------------------------                     ----------------

           IN:                                      IN:
           ---                                      ---
     STORAGE-AQUEOUS =       1.4057E-05       STORAGE-AQUEOUS =       5.2445E-10     MST                              
                 WEL =           0.0000                   WEL =           0.0000     SSM_WEL1                         
                 WEL =           0.3000                   WEL =       5.0000E-04     SSM_WEL2                         

            TOTAL IN =           0.3000              TOTAL IN =       5.0000E-04

          OUT:                                     OUT:
          ----                                     ----
     STORAGE-AQUEOUS =           0.1183       STORAGE-AQUEOUS =       9.9508E-05     MST                              
                 WEL =           0.1817                   WEL =       4.0051E-04     SSM_WEL1                         
                 WEL =           0.0000                   WEL =           0.0000     SSM_WEL2                         

           TOTAL OUT =           0.3000             TOTAL OUT =       5.0001E-04

            IN - OUT =      -4.3646E-06              IN - OUT =      -1.3518E-08

 PERCENT DISCREPANCY =          -0.00     PERCENT DISCREPANCY =          -0.00




         TIME SUMMARY AT END OF TIME STEP  200 IN STRESS PERIOD    2
                    SECONDS     MINUTES      HOURS       DAYS        YEARS
                    -----------------------------------------------------------
   TIME STEP LENGTH 1.72800E+05  2880.0      48.000      2.0000     5.47570E-03
 STRESS PERIOD TIME 3.45600E+07 5.76000E+05  9600.0      400.00      1.0951    
         TOTAL TIME 5.18400E+07 8.64000E+05  14400.      600.00      1.6427    


end timestep

